1
    SWAT Dec 23 2016    VER 2016/Rev 664                                                                 0/ 0/   0      0: 0: 0

    General Input/Output section (file.cio):                                        
    1/28/2018 12:00:00 AM ARCGIS-SWAT interface AV                                  
                                                                                    


           RES  MON    VOLUMEm3  FLOW_INcms FLOW_OUTcms    PRECIPm3      EVAPm3   SEEPAGEm3  SED_INtons SED_OUTtons SED_CONCppm   ORGN_INkg  ORGN_OUTkg RES_ORGNppm   ORGP_INkg  ORGP_OUTkg RES_ORGPppm    NO3_INkg   NO3_OUTkg  RES_NO3ppm    NO2_INkg   NO2_OUTkg  RES_NO2ppm    NH3_INkg   NH3_OUTkg  RES_NH3ppm   MINP_INkg  MINP_OUTkg RES_MINPppm   CHLA_INkg  CHLA_OUTkgSECCHIDEPTHm   PEST_INmg  REACTPSTmg    VOLPSTmg  SETTLPSTmgRESUSP_PSTmgDIFFUSEPSTmgREACBEDPSTmg   BURYPSTmg  PEST_OUTmgPSTCNCWmg/m3PSTCNCBmg/m3
RES          1   10  0.2600E+08  0.1232E+02  0.3792E+01  0.2882E+06  0.2105E+06  0.0000E+00  0.2983E+04  0.4794E+04  0.9914E+03  0.1579E+05  0.4869E+04  0.2598E+00  0.3897E+04  0.1169E+04  0.6241E-01  0.2657E+04  0.7992E+03  0.5512E-01  0.3594E+02  0.1097E+02  0.6996E-03  0.1086E+04  0.3336E+03  0.1877E-01  0.6905E+03  0.2069E+03  0.1144E-01  0.2523E+03  0.2331E+03  0.1559E+01  0.0000E+00  0.0000E+00  0.0000E+00  0.0000E+00  0.0000E+00  0.0000E+00  0.0000E+00  0.0000E+00  0.0000E+00  0.0000E+00  0.0000E+00
RES          1   11  0.2600E+08  0.8423E+01  0.8395E+01  0.1956E+06  0.2672E+06  0.0000E+00  0.1533E+04  0.1027E+05  0.4720E+03  0.3320E+03  0.5533E+04  0.2461E+00  0.8800E+02  0.1264E+04  0.5605E-01  0.6704E+03  0.1153E+04  0.5188E-01  0.5702E+01  0.1350E+02  0.6059E-03  0.6849E+02  0.3906E+03  0.1742E-01  0.3292E+02  0.2270E+03  0.1008E-01  0.0000E+00  0.2958E+03  0.2176E+01  0.0000E+00  0.0000E+00  0.0000E+00  0.0000E+00  0.0000E+00  0.0000E+00  0.0000E+00  0.0000E+00  0.0000E+00  0.0000E+00  0.0000E+00
RES          1   12  0.2600E+08  0.5889E+01  0.5970E+01  0.4038E+06  0.1863E+06  0.0000E+00  0.1022E+04  0.7547E+04  0.4720E+03  0.4635E+04  0.3098E+04  0.1902E+00  0.1324E+04  0.7392E+03  0.4517E-01  0.2526E+04  0.1069E+04  0.6761E-01  0.1723E+02  0.1022E+02  0.6409E-03  0.4313E+03  0.2549E+03  0.1578E-01  0.2986E+03  0.1521E+03  0.9347E-02  0.1706E+02  0.1857E+03  0.1932E+01  0.0000E+00  0.0000E+00  0.0000E+00  0.0000E+00  0.0000E+00  0.0000E+00  0.0000E+00  0.0000E+00  0.0000E+00  0.0000E+00  0.0000E+00
RES          1 1999  0.2600E+08  0.2239E+01  0.1519E+01  0.8876E+06  0.6640E+06  0.0000E+00  0.5538E+04  0.2261E+05  0.1631E+03  0.2076E+05  0.1350E+05  0.5844E-01  0.5309E+04  0.3172E+04  0.1374E-01  0.5853E+04  0.3021E+04  0.1469E-01  0.5888E+02  0.3469E+02  0.1637E-03  0.1586E+04  0.9790E+03  0.4367E-02  0.1022E+04  0.5860E+03  0.2594E-02  0.2694E+03  0.7146E+03  0.1932E+01  0.0000E+00  0.0000E+00  0.0000E+00  0.0000E+00  0.0000E+00  0.0000E+00  0.0000E+00  0.0000E+00  0.0000E+00  0.0000E+00  0.0000E+00
RES          1    1  0.2600E+08  0.6389E+01  0.6752E+01  0.1098E+07  0.1261E+06  0.0000E+00  0.1222E+04  0.8536E+04  0.4720E+03  0.1449E+05  0.8155E+04  0.4108E+00  0.4487E+04  0.2296E+04  0.1142E+00  0.1544E+04  0.1582E+04  0.8759E-01  0.2593E+02  0.1830E+02  0.9923E-03  0.9939E+03  0.5972E+03  0.3080E-01  0.5894E+03  0.3454E+03  0.1773E-01  0.1495E+03  0.4347E+03  0.1478E+01  0.0000E+00  0.0000E+00  0.0000E+00  0.0000E+00  0.0000E+00  0.0000E+00  0.0000E+00  0.0000E+00  0.0000E+00  0.0000E+00  0.0000E+00
RES          1    2  0.2600E+08  0.1442E+02  0.1448E+02  0.3327E+06  0.2011E+06  0.0000E+00  0.3287E+04  0.1712E+05  0.4720E+03  0.4023E+05  0.3305E+05  0.8707E+00  0.1307E+05  0.1011E+05  0.2653E+00  0.4314E+04  0.3734E+04  0.1020E+00  0.3716E+02  0.3937E+02  0.1057E-02  0.2156E+04  0.1906E+04  0.5047E-01  0.1295E+04  0.1088E+04  0.2879E-01  0.3214E+03  0.1549E+04  0.1273E+01  0.0000E+00  0.0000E+00  0.0000E+00  0.0000E+00  0.0000E+00  0.0000E+00  0.0000E+00  0.0000E+00  0.0000E+00  0.0000E+00  0.0000E+00
RES          1    3  0.2600E+08  0.1319E+02  0.1330E+02  0.6742E+06  0.3879E+06  0.0000E+00  0.2988E+04  0.1681E+05  0.4720E+03  0.1271E+05  0.1610E+05  0.4463E+00  0.4191E+04  0.4803E+04  0.1329E+00  0.2546E+04  0.2727E+04  0.7674E-01  0.3822E+02  0.2824E+02  0.7693E-03  0.1056E+04  0.1058E+04  0.2913E-01  0.5313E+03  0.5473E+03  0.1512E-01  0.2578E+02  0.8832E+03  0.1437E+01  0.0000E+00  0.0000E+00  0.0000E+00  0.0000E+00  0.0000E+00  0.0000E+00  0.0000E+00  0.0000E+00  0.0000E+00  0.0000E+00  0.0000E+00
RES          1    4  0.2600E+08  0.1211E+02  0.1225E+02  0.6912E+06  0.3399E+06  0.0000E+00  0.2572E+04  0.1498E+05  0.4720E+03  0.1243E+05  0.1206E+05  0.3743E+00  0.4180E+04  0.3708E+04  0.1149E+00  0.2034E+04  0.2115E+04  0.6684E-01  0.5252E+02  0.3840E+02  0.1195E-02  0.1160E+04  0.9964E+03  0.3092E-01  0.4323E+03  0.4254E+03  0.1321E-01  0.1814E+02  0.7058E+03  0.1465E+01  0.0000E+00  0.0000E+00  0.0000E+00  0.0000E+00  0.0000E+00  0.0000E+00  0.0000E+00  0.0000E+00  0.0000E+00  0.0000E+00  0.0000E+00
RES          1    5  0.2600E+08  0.9316E+01  0.9182E+01  0.2283E+06  0.5878E+06  0.0000E+00  0.1824E+04  0.1161E+05  0.4720E+03  0.6731E+03  0.5821E+04  0.2311E+00  0.1790E+03  0.1741E+04  0.6894E-01  0.2032E+05  0.5860E+04  0.2539E+00  0.1153E+02  0.2438E+02  0.9772E-03  0.1183E+03  0.5315E+03  0.2116E-01  0.2216E+02  0.1875E+03  0.7426E-02  0.0000E+00  0.3702E+03  0.2104E+01  0.0000E+00  0.0000E+00  0.0000E+00  0.0000E+00  0.0000E+00  0.0000E+00  0.0000E+00  0.0000E+00  0.0000E+00  0.0000E+00  0.0000E+00
RES          1    6  0.2600E+08  0.4259E+01  0.4271E+01  0.5427E+06  0.5120E+06  0.0000E+00  0.6312E+03  0.5226E+04  0.4720E+03  0.8067E+03  0.1400E+04  0.1222E+00  0.2313E+03  0.3832E+03  0.3313E-01  0.3114E+03  0.5160E+04  0.4372E+00  0.3837E+02  0.1067E+02  0.1108E-02  0.2070E+03  0.1512E+03  0.1382E-01  0.6730E+02  0.4695E+02  0.4214E-02  0.0000E+00  0.9839E+02  0.2350E+01  0.0000E+00  0.0000E+00  0.0000E+00  0.0000E+00  0.0000E+00  0.0000E+00  0.0000E+00  0.0000E+00  0.0000E+00  0.0000E+00  0.0000E+00
RES          1    7  0.2600E+08  0.1877E+01  0.1867E+01  0.5063E+06  0.5322E+06  0.0000E+00  0.3456E+03  0.2361E+04  0.4720E+03  0.3451E+04  0.8701E+03  0.1293E+00  0.1082E+04  0.2410E+03  0.3386E-01  0.5572E+02  0.1472E+04  0.3208E+00  0.4635E+02  0.1071E+02  0.2033E-02  0.4055E+03  0.1048E+03  0.1719E-01  0.2512E+03  0.4341E+02  0.5754E-02  0.1667E+02  0.5900E+02  0.1857E+01  0.0000E+00  0.0000E+00  0.0000E+00  0.0000E+00  0.0000E+00  0.0000E+00  0.0000E+00  0.0000E+00  0.0000E+00  0.0000E+00  0.0000E+00
RES          1    8  0.2600E+08  0.8056E+00  0.7287E+00  0.4785E+06  0.6846E+06  0.0000E+00  0.8231E+02  0.9212E+03  0.4728E+03  0.5165E+03  0.3665E+03  0.1871E+00  0.1400E+03  0.9592E+02  0.4956E-01  0.4204E+02  0.4640E+03  0.2462E+00  0.3113E+02  0.6191E+01  0.2984E-02  0.1440E+03  0.4918E+02  0.2426E-01  0.7661E+02  0.2152E+02  0.1058E-01  0.0000E+00  0.2420E+02  0.1951E+01  0.0000E+00  0.0000E+00  0.0000E+00  0.0000E+00  0.0000E+00  0.0000E+00  0.0000E+00  0.0000E+00  0.0000E+00  0.0000E+00  0.0000E+00
RES          1    9  0.2600E+08  0.1742E+01  0.1866E+01  0.7201E+06  0.3989E+06  0.0000E+00  0.2191E+03  0.2283E+04  0.4720E+03  0.5232E+04  0.1159E+04  0.2183E+00  0.1043E+04  0.2671E+03  0.5118E-01  0.1345E+04  0.1002E+04  0.2044E+00  0.1221E+03  0.2283E+02  0.4563E-02  0.9656E+03  0.1777E+03  0.3382E-01  0.3137E+03  0.6989E+02  0.1351E-01  0.0000E+00  0.6686E+02  0.1707E+01  0.0000E+00  0.0000E+00  0.0000E+00  0.0000E+00  0.0000E+00  0.0000E+00  0.0000E+00  0.0000E+00  0.0000E+00  0.0000E+00  0.0000E+00
RES          1   10  0.2600E+08  0.8745E+00  0.7092E+00  0.2012E+05  0.4628E+06  0.0000E+00  0.6417E+02  0.8966E+03  0.4720E+03  0.1598E+01  0.5507E+03  0.2881E+00  0.3015E+00  0.1107E+03  0.5772E-01  0.1353E+03  0.3770E+03  0.1973E+00  0.4809E+01  0.1203E+02  0.6300E-02  0.1982E+02  0.9208E+02  0.4819E-01  0.4170E+00  0.3000E+02  0.1564E-01  0.0000E+00  0.2757E+02  0.1887E+01  0.0000E+00  0.0000E+00  0.0000E+00  0.0000E+00  0.0000E+00  0.0000E+00  0.0000E+00  0.0000E+00  0.0000E+00  0.0000E+00  0.0000E+00
RES          1   11  0.2600E+08  0.1640E+01  0.1747E+01  0.4836E+06  0.2083E+06  0.0000E+00  0.2326E+03  0.2137E+04  0.4720E+03  0.7287E+04  0.1594E+04  0.3047E+00  0.1876E+04  0.3317E+03  0.6064E-01  0.3346E+04  0.9899E+03  0.2056E+00  0.4433E+02  0.2518E+02  0.5640E-02  0.7970E+03  0.2303E+03  0.4741E-01  0.4745E+03  0.8609E+02  0.1627E-01  0.3479E+01  0.7711E+02  0.1493E+01  0.0000E+00  0.0000E+00  0.0000E+00  0.0000E+00  0.0000E+00  0.0000E+00  0.0000E+00  0.0000E+00  0.0000E+00  0.0000E+00  0.0000E+00
RES          1   12  0.2600E+08  0.9195E+00  0.9819E+00  0.2843E+06  0.1172E+06  0.0000E+00  0.7121E+02  0.1241E+04  0.4720E+03  0.5508E+03  0.1093E+04  0.4148E+00  0.1438E+03  0.2285E+03  0.8670E-01  0.1198E+04  0.6609E+03  0.2510E+00  0.9588E+01  0.1461E+02  0.5544E-02  0.1128E+03  0.1505E+03  0.5712E-01  0.5769E+02  0.6057E+02  0.2296E-01  0.0000E+00  0.5154E+02  0.1626E+01  0.0000E+00  0.0000E+00  0.0000E+00  0.0000E+00  0.0000E+00  0.0000E+00  0.0000E+00  0.0000E+00  0.0000E+00  0.0000E+00  0.0000E+00
RES          1 2000  0.2600E+08  0.5589E+01  0.5636E+01  0.6060E+07  0.4559E+07  0.0000E+00  0.1354E+05  0.8412E+05  0.4721E+03  0.9837E+05  0.8221E+05  0.3311E+00  0.3063E+05  0.2431E+05  0.8838E-01  0.3720E+05  0.2614E+05  0.2044E+00  0.4620E+03  0.2509E+03  0.2769E-02  0.8136E+04  0.6045E+04  0.3362E-01  0.4111E+04  0.2952E+04  0.1422E-01  0.5350E+03  0.4347E+04  0.1626E+01  0.0000E+00  0.0000E+00  0.0000E+00  0.0000E+00  0.0000E+00  0.0000E+00  0.0000E+00  0.0000E+00  0.0000E+00  0.0000E+00  0.0000E+00
RES          1    1  0.2600E+08  0.1880E+01  0.1940E+01  0.3151E+06  0.1538E+06  0.0000E+00  0.2602E+03  0.2453E+04  0.4720E+03  0.6673E+04  0.2386E+04  0.4163E+00  0.2011E+04  0.5323E+03  0.8863E-01  0.1305E+04  0.1167E+04  0.2271E+00  0.2281E+02  0.2416E+02  0.4717E-02  0.6189E+03  0.2933E+03  0.5377E-01  0.3214E+03  0.1176E+03  0.2101E-01  0.1148E+02  0.1119E+03  0.1428E+01  0.0000E+00  0.0000E+00  0.0000E+00  0.0000E+00  0.0000E+00  0.0000E+00  0.0000E+00  0.0000E+00  0.0000E+00  0.0000E+00  0.0000E+00
RES          1    2  0.2600E+08  0.2811E+01  0.2881E+01  0.3717E+06  0.2099E+06  0.0000E+00  0.3107E+03  0.3172E+04  0.4895E+03  0.4282E+04  0.3315E+04  0.5027E+00  0.1329E+04  0.7757E+03  0.1166E+00  0.1265E+04  0.1386E+04  0.2151E+00  0.1977E+02  0.2774E+02  0.4309E-02  0.4641E+03  0.3891E+03  0.5935E-01  0.1992E+03  0.1519E+03  0.2321E-01  0.0000E+00  0.1565E+03  0.1436E+01  0.0000E+00  0.0000E+00  0.0000E+00  0.0000E+00  0.0000E+00  0.0000E+00  0.0000E+00  0.0000E+00  0.0000E+00  0.0000E+00  0.0000E+00
RES          1    3  0.2600E+08  0.9844E+01  0.1013E+02  0.1067E+07  0.2991E+06  0.0000E+00  0.2690E+04  0.1288E+05  0.4727E+03  0.6540E+05  0.3098E+05  0.8140E+00  0.2153E+05  0.9267E+04  0.2286E+00  0.4014E+04  0.4604E+04  0.1808E+00  0.1040E+03  0.9628E+02  0.3710E-02  0.4025E+04  0.2362E+04  0.7443E-01  0.2158E+04  0.1070E+04  0.3084E-01  0.9154E+03  0.1340E+04  0.8461E+00  0.0000E+00  0.0000E+00  0.0000E+00  0.0000E+00  0.0000E+00  0.0000E+00  0.0000E+00  0.0000E+00  0.0000E+00  0.0000E+00  0.0000E+00
RES          1    4  0.2600E+08  0.9742E+01  0.9670E+01  0.3478E+06  0.5354E+06  0.0000E+00  0.1885E+04  0.1200E+05  0.4787E+03  0.7146E+04  0.2880E+05  0.1142E+01  0.2354E+04  0.8764E+04  0.3473E+00  0.1964E+04  0.3146E+04  0.1254E+00  0.2737E+02  0.6613E+02  0.2626E-02  0.6592E+03  0.1948E+04  0.7728E-01  0.2461E+03  0.9331E+03  0.3699E-01  0.2100E+01  0.1270E+04  0.1162E+01  0.0000E+00  0.0000E+00  0.0000E+00  0.0000E+00  0.0000E+00  0.0000E+00  0.0000E+00  0.0000E+00  0.0000E+00  0.0000E+00  0.0000E+00
RES          1    5  0.2600E+08  0.7869E+01  0.7900E+01  0.5899E+06  0.5068E+06  0.0000E+00  0.1474E+04  0.1013E+05  0.4787E+03  0.8395E+04  0.1227E+05  0.5761E+00  0.2614E+04  0.3514E+04  0.1648E+00  0.1606E+05  0.6881E+04  0.3130E+00  0.8319E+02  0.4389E+02  0.2053E-02  0.1088E+04  0.9806E+03  0.4580E-01  0.3032E+03  0.3682E+03  0.1729E-01  0.1416E+01  0.6115E+03  0.1323E+01  0.0000E+00  0.0000E+00  0.0000E+00  0.0000E+00  0.0000E+00  0.0000E+00  0.0000E+00  0.0000E+00  0.0000E+00  0.0000E+00  0.0000E+00
RES          1    6  0.2600E+08  0.7607E+01  0.7638E+01  0.6553E+06  0.5767E+06  0.0000E+00  0.1452E+04  0.9477E+04  0.4787E+03  0.1311E+05  0.1291E+05  0.6269E+00  0.4156E+04  0.3751E+04  0.1809E+00  0.7485E+03  0.5650E+04  0.2679E+00  0.1182E+03  0.8652E+02  0.4423E-02  0.1580E+04  0.1351E+04  0.6668E-01  0.4506E+03  0.4101E+03  0.1988E-01  0.4866E+02  0.6340E+03  0.1393E+01  0.0000E+00  0.0000E+00  0.0000E+00  0.0000E+00  0.0000E+00  0.0000E+00  0.0000E+00  0.0000E+00  0.0000E+00  0.0000E+00  0.0000E+00
RES          1    7  0.2600E+08  0.4187E+01  0.4214E+01  0.6559E+06  0.5849E+06  0.0000E+00  0.6211E+03  0.5403E+04  0.4787E+03  0.1653E+04  0.4321E+04  0.3759E+00  0.4959E+03  0.1155E+04  0.1002E+00  0.1179E+03  0.1690E+04  0.1479E+00  0.3652E+02  0.3768E+02  0.3301E-02  0.2898E+03  0.4977E+03  0.4335E-01  0.1507E+03  0.1362E+03  0.1176E-01  0.0000E+00  0.2278E+03  0.1602E+01  0.0000E+00  0.0000E+00  0.0000E+00  0.0000E+00  0.0000E+00  0.0000E+00  0.0000E+00  0.0000E+00  0.0000E+00  0.0000E+00  0.0000E+00
RES          1    8  0.2600E+08  0.1288E+01  0.1233E+01  0.4918E+06  0.6388E+06  0.0000E+00  0.1447E+03  0.1581E+04  0.4788E+03  0.7564E+03  0.1053E+04  0.3141E+00  0.2122E+03  0.2644E+03  0.7847E-01  0.3383E+02  0.3390E+03  0.1024E+00  0.4166E+02  0.1300E+02  0.3896E-02  0.1904E+03  0.1360E+03  0.4042E-01  0.1065E+03  0.4411E+02  0.1291E-01  0.0000E+00  0.5720E+02  0.1723E+01  0.0000E+00  0.0000E+00  0.0000E+00  0.0000E+00  0.0000E+00  0.0000E+00  0.0000E+00  0.0000E+00  0.0000E+00  0.0000E+00  0.0000E+00
RES          1    9  0.2600E+08  0.1259E+01  0.1284E+01  0.5413E+06  0.4771E+06  0.0000E+00  0.1915E+03  0.1593E+04  0.4789E+03  0.5413E+04  0.1209E+04  0.3123E+00  0.1098E+04  0.2661E+03  0.7048E-01  0.2641E+04  0.4324E+03  0.1043E+00  0.7931E+02  0.1704E+02  0.4770E-02  0.8314E+03  0.1674E+03  0.4357E-01  0.3281E+03  0.5653E+02  0.1432E-01  0.0000E+00  0.5920E+02  0.1564E+01  0.0000E+00  0.0000E+00  0.0000E+00  0.0000E+00  0.0000E+00  0.0000E+00  0.0000E+00  0.0000E+00  0.0000E+00  0.0000E+00  0.0000E+00
RES          1   10  0.2588E+08  0.2973E+00  0.2139E+00  0.1321E+06  0.4705E+06  0.0000E+00  0.2103E+02  0.2743E+03  0.4792E+03  0.5310E+03  0.2394E+03  0.4050E+00  0.1019E+03  0.4888E+02  0.8073E-01  0.1557E+04  0.1162E+03  0.1990E+00  0.1808E+02  0.3594E+01  0.6139E-02  0.1331E+03  0.3503E+02  0.5944E-01  0.5259E+02  0.1173E+02  0.1940E-01  0.0000E+00  0.1091E+02  0.1662E+01  0.0000E+00  0.0000E+00  0.0000E+00  0.0000E+00  0.0000E+00  0.0000E+00  0.0000E+00  0.0000E+00  0.0000E+00  0.0000E+00  0.0000E+00
RES          1   11  0.2600E+08  0.2809E+00  0.1852E+00  0.1934E+06  0.3284E+06  0.0000E+00  0.2993E+02  0.2298E+03  0.4822E+03  0.1311E+04  0.1877E+03  0.3757E+00  0.3096E+03  0.3446E+02  0.6889E-01  0.5396E+04  0.1709E+03  0.2333E+00  0.2930E+02  0.2885E+01  0.5828E-02  0.2498E+03  0.2832E+02  0.5598E-01  0.1294E+03  0.9100E+01  0.1716E-01  0.0000E+00  0.8136E+01  0.1677E+01  0.0000E+00  0.0000E+00  0.0000E+00  0.0000E+00  0.0000E+00  0.0000E+00  0.0000E+00  0.0000E+00  0.0000E+00  0.0000E+00  0.0000E+00
RES          1   12  0.2599E+08  0.1486E+00  0.1339E+00  0.1734E+06  0.2184E+06  0.0000E+00  0.8184E+01  0.1716E+03  0.4790E+03  0.8785E+02  0.1306E+03  0.3644E+00  0.2270E+02  0.2262E+02  0.6311E-01  0.5423E+03  0.1306E+03  0.3619E+00  0.3441E+01  0.2139E+01  0.5963E-02  0.2655E+02  0.2012E+02  0.5609E-01  0.1800E+02  0.6240E+01  0.1733E-01  0.0000E+00  0.5547E+01  0.1802E+01  0.0000E+00  0.0000E+00  0.0000E+00  0.0000E+00  0.0000E+00  0.0000E+00  0.0000E+00  0.0000E+00  0.0000E+00  0.0000E+00  0.0000E+00
RES          1 2001  0.2599E+08  0.3927E+01  0.3945E+01  0.5534E+07  0.5000E+07  0.0000E+00  0.9088E+04  0.5936E+05  0.4775E+03  0.1148E+06  0.9781E+05  0.5165E+00  0.3623E+05  0.2840E+05  0.1318E+00  0.3564E+05  0.2571E+05  0.2061E+00  0.5837E+03  0.4211E+03  0.4298E-02  0.1016E+05  0.8209E+04  0.5611E-01  0.4464E+04  0.3315E+04  0.2007E-01  0.9790E+03  0.4493E+04  0.1802E+01  0.0000E+00  0.0000E+00  0.0000E+00  0.0000E+00  0.0000E+00  0.0000E+00  0.0000E+00  0.0000E+00  0.0000E+00  0.0000E+00  0.0000E+00
RES          1    1  0.2600E+08  0.5116E+01  0.5462E+01  0.1039E+07  0.1053E+06  0.0000E+00  0.1424E+04  0.7003E+04  0.4787E+03  0.5716E+05  0.1967E+05  0.8180E+00  0.1773E+05  0.5532E+04  0.2085E+00  0.4993E+04  0.4945E+04  0.3516E+00  0.9353E+02  0.7801E+02  0.5605E-02  0.3435E+04  0.1455E+04  0.7804E-01  0.1908E+04  0.6623E+03  0.3121E-01  0.8865E+03  0.7797E+03  0.8768E+00  0.0000E+00  0.0000E+00  0.0000E+00  0.0000E+00  0.0000E+00  0.0000E+00  0.0000E+00  0.0000E+00  0.0000E+00  0.0000E+00  0.0000E+00
RES          1    2  0.2600E+08  0.5733E+01  0.5752E+01  0.2396E+06  0.1956E+06  0.0000E+00  0.8235E+03  0.6423E+04  0.4965E+03  0.3932E+04  0.1808E+05  0.1399E+01  0.1227E+04  0.5000E+04  0.3867E+00  0.1216E+04  0.3399E+04  0.2639E+00  0.9937E+01  0.5868E+02  0.4559E-02  0.3034E+03  0.1291E+04  0.9994E-01  0.1836E+03  0.6046E+03  0.4672E-01  0.8783E+01  0.7237E+03  0.1082E+01  0.0000E+00  0.0000E+00  0.0000E+00  0.0000E+00  0.0000E+00  0.0000E+00  0.0000E+00  0.0000E+00  0.0000E+00  0.0000E+00  0.0000E+00
RES          1    3  0.2600E+08  0.1063E+02  0.1092E+02  0.1033E+07  0.2522E+06  0.0000E+00  0.2912E+04  0.1413E+05  0.4792E+03  0.5272E+05  0.3370E+05  0.9618E+00  0.1730E+05  0.9695E+04  0.2634E+00  0.2821E+04  0.4560E+04  0.1681E+00  0.7296E+02  0.8344E+02  0.2900E-02  0.3080E+04  0.2299E+04  0.7157E-01  0.1710E+04  0.1089E+04  0.3204E-01  0.9447E+03  0.1424E+04  0.8677E+00  0.0000E+00  0.0000E+00  0.0000E+00  0.0000E+00  0.0000E+00  0.0000E+00  0.0000E+00  0.0000E+00  0.0000E+00  0.0000E+00  0.0000E+00
RES          1    4  0.2600E+08  0.1061E+02  0.1062E+02  0.4289E+06  0.4030E+06  0.0000E+00  0.2172E+04  0.1358E+05  0.4934E+03  0.1490E+05  0.3433E+05  0.1201E+01  0.4827E+04  0.1042E+05  0.3633E+00  0.6905E+04  0.3282E+04  0.1209E+00  0.7235E+02  0.7608E+02  0.2726E-02  0.1378E+04  0.2228E+04  0.7857E-01  0.6080E+03  0.1104E+04  0.3859E-01  0.3915E+02  0.1481E+04  0.1171E+01  0.0000E+00  0.0000E+00  0.0000E+00  0.0000E+00  0.0000E+00  0.0000E+00  0.0000E+00  0.0000E+00  0.0000E+00  0.0000E+00  0.0000E+00
RES          1    5  0.2600E+08  0.1081E+02  0.1082E+02  0.6283E+06  0.5799E+06  0.0000E+00  0.2502E+04  0.1430E+05  0.4934E+03  0.2775E+05  0.2762E+05  0.8930E+00  0.9072E+04  0.8357E+04  0.2681E+00  0.7527E+04  0.8385E+04  0.2688E+00  0.9317E+02  0.7649E+02  0.2716E-02  0.2110E+04  0.1946E+04  0.6507E-01  0.8721E+03  0.8389E+03  0.2706E-01  0.3168E+03  0.1267E+04  0.1233E+01  0.0000E+00  0.0000E+00  0.0000E+00  0.0000E+00  0.0000E+00  0.0000E+00  0.0000E+00  0.0000E+00  0.0000E+00  0.0000E+00  0.0000E+00
RES          1    6  0.2600E+08  0.5056E+01  0.4862E+01  0.1874E+06  0.6897E+06  0.0000E+00  0.7556E+03  0.6218E+04  0.4934E+03  0.2761E+02  0.6239E+04  0.4787E+00  0.7742E+01  0.1743E+04  0.1331E+00  0.2582E+03  0.1742E+04  0.1341E+00  0.1027E+02  0.2496E+02  0.1935E-02  0.4420E+02  0.5023E+03  0.3863E-01  0.9499E+01  0.1732E+03  0.1324E-01  0.0000E+00  0.3151E+03  0.1570E+01  0.0000E+00  0.0000E+00  0.0000E+00  0.0000E+00  0.0000E+00  0.0000E+00  0.0000E+00  0.0000E+00  0.0000E+00  0.0000E+00  0.0000E+00
RES          1    7  0.2584E+08  0.8481E+00  0.7039E+00  0.2685E+06  0.8118E+06  0.0000E+00  0.7529E+02  0.9302E+03  0.4937E+03  0.3797E+02  0.6418E+03  0.3292E+00  0.1004E+02  0.1654E+03  0.8336E-01  0.4726E+02  0.1863E+03  0.9580E-01  0.1617E+02  0.3381E+01  0.1861E-02  0.3495E+02  0.5402E+02  0.2795E-01  0.1686E+02  0.1723E+02  0.8814E-02  0.0000E+00  0.3357E+02  0.1724E+01  0.0000E+00  0.0000E+00  0.0000E+00  0.0000E+00  0.0000E+00  0.0000E+00  0.0000E+00  0.0000E+00  0.0000E+00  0.0000E+00  0.0000E+00
RES          1    8  0.2600E+08  0.1828E+01  0.1894E+01  0.1081E+07  0.7464E+06  0.0000E+00  0.3649E+03  0.2503E+04  0.4995E+03  0.1303E+05  0.2584E+04  0.3237E+00  0.2828E+04  0.5629E+03  0.7412E-01  0.1745E+04  0.5616E+03  0.9095E-01  0.1365E+03  0.2353E+02  0.2338E-02  0.1788E+04  0.2989E+03  0.3020E-01  0.6023E+03  0.9349E+02  0.9079E-02  0.3986E+00  0.1119E+03  0.1324E+01  0.0000E+00  0.0000E+00  0.0000E+00  0.0000E+00  0.0000E+00  0.0000E+00  0.0000E+00  0.0000E+00  0.0000E+00  0.0000E+00  0.0000E+00
RES          1    9  0.2600E+08  0.2258E+01  0.2255E+01  0.5012E+06  0.5100E+06  0.0000E+00  0.4667E+03  0.2884E+04  0.4934E+03  0.1723E+05  0.5613E+04  0.8987E+00  0.4036E+04  0.1233E+04  0.1931E+00  0.1068E+05  0.1941E+04  0.3000E+00  0.2144E+03  0.5019E+02  0.9600E-02  0.2280E+04  0.6714E+03  0.1131E+00  0.1019E+04  0.2462E+03  0.3990E-01  0.1561E+03  0.2154E+03  0.1137E+01  0.0000E+00  0.0000E+00  0.0000E+00  0.0000E+00  0.0000E+00  0.0000E+00  0.0000E+00  0.0000E+00  0.0000E+00  0.0000E+00  0.0000E+00
RES          1   10  0.2600E+08  0.4440E+01  0.4662E+01  0.8616E+06  0.2658E+06  0.0000E+00  0.1102E+04  0.6161E+04  0.4934E+03  0.3216E+05  0.1870E+05  0.1342E+01  0.8943E+04  0.4459E+04  0.3095E+00  0.6881E+04  0.5726E+04  0.4428E+00  0.1690E+03  0.1379E+03  0.1151E-01  0.3083E+04  0.1983E+04  0.1519E+00  0.1822E+04  0.8963E+03  0.6543E-01  0.4665E+03  0.6885E+03  0.9831E+00  0.0000E+00  0.0000E+00  0.0000E+00  0.0000E+00  0.0000E+00  0.0000E+00  0.0000E+00  0.0000E+00  0.0000E+00  0.0000E+00  0.0000E+00
RES          1   11  0.2600E+08  0.6772E+01  0.6912E+01  0.5811E+06  0.2186E+06  0.0000E+00  0.1197E+04  0.8839E+04  0.4934E+03  0.1477E+05  0.2208E+05  0.1226E+01  0.4454E+04  0.5311E+04  0.2925E+00  0.2240E+04  0.5850E+04  0.3342E+00  0.7801E+02  0.1642E+03  0.9236E-02  0.1543E+04  0.2433E+04  0.1354E+00  0.7623E+03  0.1076E+04  0.5980E-01  0.8901E+01  0.8581E+03  0.1114E+01  0.0000E+00  0.0000E+00  0.0000E+00  0.0000E+00  0.0000E+00  0.0000E+00  0.0000E+00  0.0000E+00  0.0000E+00  0.0000E+00  0.0000E+00
RES          1   12  0.2600E+08  0.1108E+02  0.1128E+02  0.6786E+06  0.1391E+06  0.0000E+00  0.2448E+04  0.1491E+05  0.4934E+03  0.2409E+05  0.2915E+05  0.9407E+00  0.7816E+04  0.7818E+04  0.2512E+00  0.3164E+04  0.5594E+04  0.1831E+00  0.3862E+02  0.1334E+03  0.4375E-02  0.1494E+04  0.2531E+04  0.8252E-01  0.8732E+03  0.1179E+04  0.3823E-01  0.1892E+03  0.1260E+04  0.1241E+01  0.0000E+00  0.0000E+00  0.0000E+00  0.0000E+00  0.0000E+00  0.0000E+00  0.0000E+00  0.0000E+00  0.0000E+00  0.0000E+00  0.0000E+00
RES          1 2002  0.2600E+08  0.6254E+01  0.6337E+01  0.7528E+07  0.4917E+07  0.0000E+00  0.1624E+05  0.9788E+05  0.4904E+03  0.2578E+06  0.2184E+06  0.8925E+00  0.7825E+05  0.6030E+05  0.2332E+00  0.4848E+05  0.4617E+05  0.2286E+00  0.1005E+04  0.9103E+03  0.4927E-02  0.2058E+05  0.1769E+05  0.8054E-01  0.1039E+05  0.7980E+04  0.3390E-01  0.3017E+04  0.9158E+04  0.1241E+01  0.0000E+00  0.0000E+00  0.0000E+00  0.0000E+00  0.0000E+00  0.0000E+00  0.0000E+00  0.0000E+00  0.0000E+00  0.0000E+00  0.0000E+00
RES          1    1  0.2600E+08  0.1066E+02  0.1076E+02  0.3811E+06  0.1339E+06  0.0000E+00  0.2218E+04  0.1421E+05  0.4934E+03  0.1121E+05  0.1608E+05  0.5356E+00  0.3507E+04  0.4384E+04  0.1456E+00  0.1810E+04  0.2957E+04  0.1001E+00  0.3190E+02  0.6104E+02  0.2035E-02  0.9270E+03  0.1367E+04  0.4557E-01  0.3284E+03  0.5662E+03  0.1880E-01  0.1464E+02  0.7861E+03  0.1468E+01  0.0000E+00  0.0000E+00  0.0000E+00  0.0000E+00  0.0000E+00  0.0000E+00  0.0000E+00  0.0000E+00  0.0000E+00  0.0000E+00  0.0000E+00
RES          1    2  0.2600E+08  0.1105E+02  0.1131E+02  0.7276E+06  0.1177E+06  0.0000E+00  0.2018E+04  0.1302E+05  0.5117E+03  0.2161E+05  0.1406E+05  0.5324E+00  0.7089E+04  0.4151E+04  0.1562E+00  0.2214E+04  0.2004E+04  0.7864E-01  0.3436E+02  0.3432E+02  0.1342E-02  0.1405E+04  0.1043E+04  0.3998E-01  0.4848E+03  0.3496E+03  0.1344E-01  0.5070E+02  0.7185E+03  0.1218E+01  0.0000E+00  0.0000E+00  0.0000E+00  0.0000E+00  0.0000E+00  0.0000E+00  0.0000E+00  0.0000E+00  0.0000E+00  0.0000E+00  0.0000E+00
RES          1    3  0.2600E+08  0.1772E+02  0.1802E+02  0.1045E+07  0.2303E+06  0.0000E+00  0.4645E+04  0.2382E+05  0.4934E+03  0.6506E+05  0.5040E+05  0.1004E+01  0.2136E+05  0.1581E+05  0.3141E+00  0.3593E+04  0.3587E+04  0.7492E-01  0.1295E+03  0.9654E+02  0.1940E-02  0.4464E+04  0.3435E+04  0.6855E-01  0.1440E+04  0.1113E+04  0.2226E-01  0.3699E+03  0.2278E+04  0.1002E+01  0.0000E+00  0.0000E+00  0.0000E+00  0.0000E+00  0.0000E+00  0.0000E+00  0.0000E+00  0.0000E+00  0.0000E+00  0.0000E+00  0.0000E+00
RES          1    4  0.2600E+08  0.2109E+02  0.2133E+02  0.1010E+07  0.3744E+06  0.0000E+00  0.5801E+04  0.2728E+05  0.4934E+03  0.6748E+05  0.7092E+05  0.1187E+01  0.2265E+05  0.2282E+05  0.3801E+00  0.3317E+04  0.3379E+04  0.6195E-01  0.9174E+02  0.9855E+02  0.1756E-02  0.3518E+04  0.3908E+04  0.6702E-01  0.1474E+04  0.1515E+04  0.2556E-01  0.7999E+03  0.3082E+04  0.1106E+01  0.0000E+00  0.0000E+00  0.0000E+00  0.0000E+00  0.0000E+00  0.0000E+00  0.0000E+00  0.0000E+00  0.0000E+00  0.0000E+00  0.0000E+00
RES          1    5  0.2600E+08  0.2063E+02  0.2092E+02  0.1141E+07  0.3587E+06  0.0000E+00  0.5991E+04  0.2785E+05  0.4959E+03  0.5514E+05  0.4813E+05  0.7523E+00  0.1806E+05  0.1527E+05  0.2368E+00  0.2110E+05  0.1521E+05  0.2304E+00  0.1229E+03  0.9862E+02  0.1676E-02  0.3537E+04  0.3018E+04  0.4834E-01  0.1509E+04  0.1160E+04  0.1767E-01  0.7946E+03  0.2263E+04  0.1023E+01  0.0000E+00  0.0000E+00  0.0000E+00  0.0000E+00  0.0000E+00  0.0000E+00  0.0000E+00  0.0000E+00  0.0000E+00  0.0000E+00  0.0000E+00
RES          1    6  0.2600E+08  0.2198E+02  0.2224E+02  0.1111E+07  0.4374E+06  0.0000E+00  0.6009E+04  0.2890E+05  0.5012E+03  0.3200E+05  0.4695E+05  0.7813E+00  0.1022E+05  0.1456E+05  0.2418E+00  0.3114E+04  0.7135E+04  0.1232E+00  0.1640E+03  0.1759E+03  0.2970E-02  0.2992E+04  0.3741E+04  0.6231E-01  0.8137E+03  0.1161E+04  0.1946E-01  0.1742E+03  0.2233E+04  0.1511E+01  0.0000E+00  0.0000E+00  0.0000E+00  0.0000E+00  0.0000E+00  0.0000E+00  0.0000E+00  0.0000E+00  0.0000E+00  0.0000E+00  0.0000E+00
RES          1    7  0.2600E+08  0.2032E+02  0.2052E+02  0.9685E+06  0.4391E+06  0.0000E+00  0.5626E+04  0.2754E+05  0.5012E+03  0.1698E+05  0.2067E+05  0.3468E+00  0.5431E+04  0.6298E+04  0.1051E+00  0.7395E+03  0.2469E+04  0.4116E-01  0.9386E+02  0.1026E+03  0.1819E-02  0.1558E+04  0.1825E+04  0.3124E-01  0.7000E+03  0.7021E+03  0.1191E-01  0.1101E+03  0.1191E+04  0.1918E+01  0.0000E+00  0.0000E+00  0.0000E+00  0.0000E+00  0.0000E+00  0.0000E+00  0.0000E+00  0.0000E+00  0.0000E+00  0.0000E+00  0.0000E+00
RES          1    8  0.2600E+08  0.1259E+02  0.1260E+02  0.5226E+06  0.5063E+06  0.0000E+00  0.2797E+04  0.1691E+05  0.5012E+03  0.9890E+03  0.3945E+04  0.1117E+00  0.2781E+03  0.1105E+04  0.3118E-01  0.2320E+03  0.4898E+03  0.1405E-01  0.1983E+02  0.3279E+02  0.9431E-03  0.1773E+03  0.4345E+03  0.1239E-01  0.6604E+02  0.1561E+03  0.4430E-02  0.0000E+00  0.2887E+03  0.2943E+01  0.0000E+00  0.0000E+00  0.0000E+00  0.0000E+00  0.0000E+00  0.0000E+00  0.0000E+00  0.0000E+00  0.0000E+00  0.0000E+00  0.0000E+00
RES          1    9  0.2600E+08  0.1571E+02  0.1589E+02  0.8654E+06  0.3967E+06  0.0000E+00  0.5960E+04  0.2356E+05  0.5441E+03  0.2895E+05  0.1689E+05  0.2685E+00  0.8764E+04  0.5047E+04  0.7836E-01  0.1123E+03  0.2298E+03  0.6308E-02  0.6237E+02  0.3725E+02  0.9564E-03  0.1640E+04  0.9588E+03  0.1826E-01  0.1241E+04  0.6744E+03  0.1166E-01  0.6798E+03  0.9183E+03  0.1342E+01  0.0000E+00  0.0000E+00  0.0000E+00  0.0000E+00  0.0000E+00  0.0000E+00  0.0000E+00  0.0000E+00  0.0000E+00  0.0000E+00  0.0000E+00
RES          1   10  0.2600E+08  0.6699E+01  0.6812E+01  0.6710E+06  0.3667E+06  0.0000E+00  0.1625E+04  0.1095E+05  0.6002E+03  0.2749E+05  0.1201E+05  0.4545E+00  0.6223E+04  0.2995E+04  0.1218E+00  0.3080E+04  0.8556E+03  0.2176E-01  0.6983E+02  0.3237E+02  0.1410E-02  0.1880E+04  0.7845E+03  0.3004E-01  0.1039E+04  0.4703E+03  0.1905E-01  0.4151E+03  0.5355E+03  0.1107E+01  0.0000E+00  0.0000E+00  0.0000E+00  0.0000E+00  0.0000E+00  0.0000E+00  0.0000E+00  0.0000E+00  0.0000E+00  0.0000E+00  0.0000E+00
RES          1   11  0.2600E+08  0.6184E+01  0.6236E+01  0.3717E+06  0.2353E+06  0.0000E+00  0.1241E+04  0.9701E+04  0.6002E+03  0.8678E+04  0.1404E+05  0.8646E+00  0.2095E+04  0.3166E+04  0.1949E+00  0.5909E+04  0.2617E+04  0.1397E+00  0.3489E+02  0.4133E+02  0.2597E-02  0.7192E+03  0.9876E+03  0.6094E-01  0.4892E+03  0.5590E+03  0.3408E-01  0.1439E+03  0.5559E+03  0.1270E+01  0.0000E+00  0.0000E+00  0.0000E+00  0.0000E+00  0.0000E+00  0.0000E+00  0.0000E+00  0.0000E+00  0.0000E+00  0.0000E+00  0.0000E+00
RES          1   12  0.2600E+08  0.6094E+01  0.6202E+01  0.4585E+06  0.1700E+06  0.0000E+00  0.1078E+04  0.9969E+04  0.6002E+03  0.5366E+04  0.1026E+05  0.6098E+00  0.1417E+04  0.2244E+04  0.1328E+00  0.2441E+04  0.3070E+04  0.1831E+00  0.1265E+02  0.3003E+02  0.1805E-02  0.3843E+03  0.7401E+03  0.4417E-01  0.2692E+03  0.4207E+03  0.2499E-01  0.3947E+02  0.4336E+03  0.1496E+01  0.0000E+00  0.0000E+00  0.0000E+00  0.0000E+00  0.0000E+00  0.0000E+00  0.0000E+00  0.0000E+00  0.0000E+00  0.0000E+00  0.0000E+00
RES          1 2003  0.2600E+08  0.1420E+02  0.1438E+02  0.9274E+07  0.3767E+07  0.0000E+00  0.4501E+05  0.2337E+06  0.5266E+03  0.3410E+06  0.3244E+06  0.6183E+00  0.1071E+06  0.9786E+05  0.1775E+00  0.4766E+05  0.4400E+05  0.8955E-01  0.8678E+03  0.8414E+03  0.1767E-02  0.2320E+05  0.2224E+05  0.4390E-01  0.9854E+04  0.8848E+04  0.1857E-01  0.3592E+04  0.1528E+05  0.1496E+01  0.0000E+00  0.0000E+00  0.0000E+00  0.0000E+00  0.0000E+00  0.0000E+00  0.0000E+00  0.0000E+00  0.0000E+00  0.0000E+00  0.0000E+00
RES          1    1  0.2600E+08  0.5645E+01  0.5725E+01  0.3685E+06  0.1546E+06  0.0000E+00  0.9117E+03  0.9202E+04  0.6002E+03  0.3792E+04  0.5937E+04  0.3850E+00  0.1078E+04  0.1263E+04  0.8172E-01  0.2462E+04  0.2183E+04  0.1415E+00  0.1474E+02  0.1900E+02  0.1233E-02  0.3613E+03  0.4570E+03  0.2962E-01  0.1956E+03  0.2425E+03  0.1571E-01  0.0000E+00  0.2754E+03  0.1649E+01  0.0000E+00  0.0000E+00  0.0000E+00  0.0000E+00  0.0000E+00  0.0000E+00  0.0000E+00  0.0000E+00  0.0000E+00  0.0000E+00  0.0000E+00
RES          1    2  0.2600E+08  0.8536E+01  0.8751E+01  0.7050E+06  0.1658E+06  0.0000E+00  0.1574E+04  0.1316E+05  0.6002E+03  0.1601E+05  0.1005E+05  0.4404E+00  0.4805E+04  0.2540E+04  0.1098E+00  0.2923E+04  0.3084E+04  0.1413E+00  0.3266E+02  0.2672E+02  0.1205E-02  0.1165E+04  0.7815E+03  0.3454E-01  0.6163E+03  0.3933E+03  0.1737E-01  0.2851E+02  0.4976E+03  0.1345E+01  0.0000E+00  0.0000E+00  0.0000E+00  0.0000E+00  0.0000E+00  0.0000E+00  0.0000E+00  0.0000E+00  0.0000E+00  0.0000E+00  0.0000E+00
RES          1    3  0.2600E+08  0.9134E+01  0.9147E+01  0.3201E+06  0.2856E+06  0.0000E+00  0.1777E+04  0.1470E+05  0.6002E+03  0.3061E+04  0.9246E+04  0.3740E+00  0.9284E+03  0.2442E+04  0.9868E-01  0.1565E+04  0.2486E+04  0.1010E+00  0.1478E+02  0.2332E+02  0.9434E-03  0.3218E+03  0.7055E+03  0.2853E-01  0.1353E+03  0.3332E+03  0.1347E-01  0.0000E+00  0.4897E+03  0.1781E+01  0.0000E+00  0.0000E+00  0.0000E+00  0.0000E+00  0.0000E+00  0.0000E+00  0.0000E+00  0.0000E+00  0.0000E+00  0.0000E+00  0.0000E+00
RES          1    4  0.2600E+08  0.8691E+01  0.8741E+01  0.5943E+06  0.4634E+06  0.0000E+00  0.1656E+04  0.1360E+05  0.6002E+03  0.1751E+05  0.8563E+04  0.3598E+00  0.5438E+04  0.2396E+04  0.9998E-01  0.1643E+04  0.1701E+04  0.7507E-01  0.7886E+02  0.3256E+02  0.1382E-02  0.1767E+04  0.7894E+03  0.3311E-01  0.5383E+03  0.2743E+03  0.1162E-01  0.2583E+02  0.4624E+03  0.1301E+01  0.0000E+00  0.0000E+00  0.0000E+00  0.0000E+00  0.0000E+00  0.0000E+00  0.0000E+00  0.0000E+00  0.0000E+00  0.0000E+00  0.0000E+00
RES          1    5  0.2600E+08  0.9664E+01  0.9657E+01  0.5421E+06  0.5622E+06  0.0000E+00  0.2028E+04  0.1552E+05  0.6002E+03  0.2191E+05  0.2123E+05  0.7820E+00  0.6848E+04  0.6248E+04  0.2287E+00  0.1307E+05  0.5194E+04  0.2317E+00  0.8509E+02  0.8198E+02  0.3104E-02  0.1941E+04  0.1939E+04  0.7184E-01  0.5840E+03  0.5753E+03  0.2101E-01  0.1093E+03  0.9804E+03  0.1384E+01  0.0000E+00  0.0000E+00  0.0000E+00  0.0000E+00  0.0000E+00  0.0000E+00  0.0000E+00  0.0000E+00  0.0000E+00  0.0000E+00  0.0000E+00
RES          1    6  0.2600E+08  0.4473E+01  0.4465E+01  0.4415E+06  0.4618E+06  0.0000E+00  0.6773E+03  0.6946E+04  0.6002E+03  0.1511E+04  0.4895E+04  0.3976E+00  0.4494E+03  0.1330E+04  0.1069E+00  0.2543E+03  0.3144E+04  0.2545E+00  0.2854E+02  0.2520E+02  0.2128E-02  0.2526E+03  0.4832E+03  0.3960E-01  0.5674E+02  0.1248E+03  0.1008E-01  0.0000E+00  0.2508E+03  0.1657E+01  0.0000E+00  0.0000E+00  0.0000E+00  0.0000E+00  0.0000E+00  0.0000E+00  0.0000E+00  0.0000E+00  0.0000E+00  0.0000E+00  0.0000E+00
RES          1    7  0.2600E+08  0.1184E+01  0.1200E+01  0.5522E+06  0.5082E+06  0.0000E+00  0.1101E+03  0.1929E+04  0.6002E+03  0.1829E+03  0.9263E+03  0.2939E+00  0.4873E+02  0.2257E+03  0.7216E-01  0.6114E+02  0.5872E+03  0.1868E+00  0.2927E+02  0.7467E+01  0.2247E-02  0.8191E+02  0.9883E+02  0.3105E-01  0.4708E+02  0.2437E+02  0.7546E-02  0.0000E+00  0.4842E+02  0.1832E+01  0.0000E+00  0.0000E+00  0.0000E+00  0.0000E+00  0.0000E+00  0.0000E+00  0.0000E+00  0.0000E+00  0.0000E+00  0.0000E+00  0.0000E+00
RES          1    8  0.2600E+08  0.1291E+02  0.1327E+02  0.1533E+07  0.5613E+06  0.0000E+00  0.4935E+04  0.2330E+05  0.6376E+03  0.4098E+05  0.2583E+05  0.6002E+00  0.1216E+05  0.7283E+04  0.1643E+00  0.1226E+03  0.2953E+04  0.9643E-01  0.1848E+03  0.1314E+03  0.3912E-02  0.3029E+04  0.1990E+04  0.5155E-01  0.1855E+04  0.1043E+04  0.2495E-01  0.7583E+03  0.1228E+04  0.1158E+01  0.0000E+00  0.0000E+00  0.0000E+00  0.0000E+00  0.0000E+00  0.0000E+00  0.0000E+00  0.0000E+00  0.0000E+00  0.0000E+00  0.0000E+00
RES          1    9  0.2600E+08  0.1127E+02  0.1146E+02  0.8949E+06  0.4143E+06  0.0000E+00  0.2552E+04  0.1973E+05  0.6646E+03  0.2017E+05  0.2229E+05  0.7318E+00  0.5046E+04  0.5846E+04  0.1910E+00  0.4432E+04  0.2261E+04  0.7728E-01  0.1556E+03  0.1371E+03  0.4570E-02  0.2233E+04  0.2051E+04  0.6747E-01  0.1044E+04  0.1001E+04  0.3290E-01  0.9837E+02  0.1021E+04  0.1314E+01  0.0000E+00  0.0000E+00  0.0000E+00  0.0000E+00  0.0000E+00  0.0000E+00  0.0000E+00  0.0000E+00  0.0000E+00  0.0000E+00  0.0000E+00
RES          1   10  0.2600E+08  0.9234E+01  0.9269E+01  0.4107E+06  0.3185E+06  0.0000E+00  0.1914E+04  0.1650E+05  0.6646E+03  0.1064E+05  0.1381E+05  0.5354E+00  0.2530E+04  0.3183E+04  0.1230E+00  0.5952E+04  0.4286E+04  0.1661E+00  0.4135E+02  0.8353E+02  0.3299E-02  0.9283E+03  0.1336E+04  0.5219E-01  0.5420E+03  0.6402E+03  0.2486E-01  0.1235E+03  0.6275E+03  0.1525E+01  0.0000E+00  0.0000E+00  0.0000E+00  0.0000E+00  0.0000E+00  0.0000E+00  0.0000E+00  0.0000E+00  0.0000E+00  0.0000E+00  0.0000E+00
RES          1   11  0.2600E+08  0.5506E+01  0.5565E+01  0.4144E+06  0.2604E+06  0.0000E+00  0.8435E+03  0.9587E+04  0.6646E+03  0.2545E+04  0.4949E+04  0.3403E+00  0.6701E+03  0.1070E+04  0.7346E-01  0.2036E+04  0.2119E+04  0.1463E+00  0.2166E+02  0.2939E+02  0.2023E-02  0.3389E+03  0.4901E+03  0.3373E-01  0.1868E+03  0.2297E+03  0.1579E-01  0.0000E+00  0.2428E+03  0.1735E+01  0.0000E+00  0.0000E+00  0.0000E+00  0.0000E+00  0.0000E+00  0.0000E+00  0.0000E+00  0.0000E+00  0.0000E+00  0.0000E+00  0.0000E+00
RES          1   12  0.2600E+08  0.8525E+01  0.8681E+01  0.5610E+06  0.1425E+06  0.0000E+00  0.2191E+04  0.1557E+05  0.6686E+03  0.2106E+05  0.1405E+05  0.5319E+00  0.6218E+04  0.3723E+04  0.1377E+00  0.2021E+04  0.2732E+04  0.1188E+00  0.3254E+02  0.4063E+02  0.1713E-02  0.1265E+04  0.1014E+04  0.4023E-01  0.8986E+03  0.6015E+03  0.2318E-01  0.3565E+03  0.6738E+03  0.1373E+01  0.0000E+00  0.0000E+00  0.0000E+00  0.0000E+00  0.0000E+00  0.0000E+00  0.0000E+00  0.0000E+00  0.0000E+00  0.0000E+00  0.0000E+00
RES          1 2004  0.2600E+08  0.7899E+01  0.7995E+01  0.7338E+07  0.4299E+07  0.0000E+00  0.2117E+05  0.1597E+06  0.6251E+03  0.1594E+06  0.1418E+06  0.4815E+00  0.4622E+05  0.3755E+05  0.1241E+00  0.3654E+05  0.3273E+05  0.1448E+00  0.7199E+03  0.6383E+03  0.2317E-02  0.1368E+05  0.1214E+05  0.4283E-01  0.6699E+04  0.5483E+04  0.1822E-01  0.1500E+04  0.6797E+04  0.1373E+01  0.0000E+00  0.0000E+00  0.0000E+00  0.0000E+00  0.0000E+00  0.0000E+00  0.0000E+00  0.0000E+00  0.0000E+00  0.0000E+00  0.0000E+00
RES          1    1  0.2600E+08  0.1052E+02  0.1068E+02  0.5547E+06  0.1112E+06  0.0000E+00  0.2844E+04  0.1945E+05  0.6776E+03  0.5253E+05  0.3336E+05  0.9562E+00  0.1610E+05  0.9639E+04  0.2709E+00  0.3883E+04  0.3291E+04  0.1098E+00  0.3135E+02  0.3565E+02  0.1228E-02  0.2391E+04  0.1691E+04  0.5126E-01  0.1378E+04  0.9727E+03  0.2936E-01  0.1070E+04  0.1389E+04  0.1017E+01  0.0000E+00  0.0000E+00  0.0000E+00  0.0000E+00  0.0000E+00  0.0000E+00  0.0000E+00  0.0000E+00  0.0000E+00  0.0000E+00  0.0000E+00
RES          1    2  0.2600E+08  0.9219E+01  0.9346E+01  0.4396E+06  0.1423E+06  0.0000E+00  0.1670E+04  0.1489E+05  0.7083E+03  0.1203E+05  0.1757E+05  0.8259E+00  0.3779E+04  0.4884E+04  0.2283E+00  0.1413E+04  0.2044E+04  0.9884E-01  0.1083E+02  0.1792E+02  0.8601E-03  0.5959E+03  0.9057E+03  0.4286E-01  0.3387E+03  0.4671E+03  0.2199E-01  0.1592E+03  0.7841E+03  0.1133E+01  0.0000E+00  0.0000E+00  0.0000E+00  0.0000E+00  0.0000E+00  0.0000E+00  0.0000E+00  0.0000E+00  0.0000E+00  0.0000E+00  0.0000E+00
RES          1    3  0.2600E+08  0.1319E+02  0.1345E+02  0.9541E+06  0.2435E+06  0.0000E+00  0.3261E+04  0.2461E+05  0.6830E+03  0.4952E+05  0.3654E+05  0.9427E+00  0.1551E+05  0.1072E+05  0.2744E+00  0.3050E+04  0.2930E+04  0.8212E-01  0.8681E+02  0.4682E+02  0.1174E-02  0.3328E+04  0.2146E+04  0.5420E-01  0.1594E+04  0.1045E+04  0.2686E-01  0.4113E+03  0.1609E+04  0.9700E+00  0.0000E+00  0.0000E+00  0.0000E+00  0.0000E+00  0.0000E+00  0.0000E+00  0.0000E+00  0.0000E+00  0.0000E+00  0.0000E+00  0.0000E+00
RES          1    4  0.2600E+08  0.1637E+02  0.1648E+02  0.6648E+06  0.3711E+06  0.0000E+00  0.4098E+04  0.2918E+05  0.6830E+03  0.2787E+05  0.4516E+05  0.9727E+00  0.8869E+04  0.1352E+05  0.2897E+00  0.2973E+04  0.3084E+04  0.7235E-01  0.4795E+02  0.7486E+02  0.1684E-02  0.1705E+04  0.2834E+04  0.6181E-01  0.8877E+03  0.1359E+04  0.2937E-01  0.3499E+03  0.1984E+04  0.1400E+01  0.0000E+00  0.0000E+00  0.0000E+00  0.0000E+00  0.0000E+00  0.0000E+00  0.0000E+00  0.0000E+00  0.0000E+00  0.0000E+00  0.0000E+00
RES          1    5  0.2600E+08  0.1491E+02  0.1499E+02  0.6270E+06  0.4234E+06  0.0000E+00  0.3845E+04  0.2744E+05  0.6835E+03  0.4127E+05  0.3709E+05  0.8387E+00  0.1325E+05  0.1132E+05  0.2537E+00  0.2421E+05  0.1259E+05  0.3824E+00  0.6409E+02  0.5769E+02  0.1442E-02  0.2206E+04  0.2062E+04  0.4804E-01  0.9462E+03  0.8825E+03  0.2011E-01  0.6246E+03  0.1682E+04  0.1337E+01  0.0000E+00  0.0000E+00  0.0000E+00  0.0000E+00  0.0000E+00  0.0000E+00  0.0000E+00  0.0000E+00  0.0000E+00  0.0000E+00  0.0000E+00
RES          1    6  0.2600E+08  0.9757E+01  0.9831E+01  0.6987E+06  0.5065E+06  0.0000E+00  0.1912E+04  0.1742E+05  0.6836E+03  0.6354E+04  0.1148E+05  0.4331E+00  0.1905E+04  0.3269E+04  0.1228E+00  0.1304E+04  0.7576E+04  0.2829E+00  0.6215E+02  0.4393E+02  0.1735E-02  0.7918E+03  0.8675E+03  0.3324E-01  0.1703E+03  0.2588E+03  0.9761E-02  0.2103E+01  0.5925E+03  0.1706E+01  0.0000E+00  0.0000E+00  0.0000E+00  0.0000E+00  0.0000E+00  0.0000E+00  0.0000E+00  0.0000E+00  0.0000E+00  0.0000E+00  0.0000E+00
RES          1    7  0.2600E+08  0.3718E+01  0.3687E+01  0.5817E+06  0.6654E+06  0.0000E+00  0.5468E+03  0.6751E+04  0.6836E+03  0.3443E+03  0.2316E+04  0.2202E+00  0.9470E+02  0.6099E+03  0.5723E-01  0.1655E+03  0.1576E+04  0.1493E+00  0.3045E+02  0.1545E+02  0.1632E-02  0.1155E+03  0.2086E+03  0.2032E-01  0.5730E+02  0.5895E+02  0.5789E-02  0.0000E+00  0.1338E+03  0.2035E+01  0.0000E+00  0.0000E+00  0.0000E+00  0.0000E+00  0.0000E+00  0.0000E+00  0.0000E+00  0.0000E+00  0.0000E+00  0.0000E+00  0.0000E+00
RES          1    8  0.2599E+08  0.7343E+00  0.5473E+00  0.2654E+06  0.7792E+06  0.0000E+00  0.5854E+02  0.1002E+04  0.6837E+03  0.5165E+02  0.2546E+03  0.1718E+00  0.1307E+02  0.6075E+02  0.4069E-01  0.3640E+02  0.1712E+03  0.1155E+00  0.1942E+02  0.3086E+01  0.2130E-02  0.4004E+02  0.2621E+02  0.1776E-01  0.1997E+02  0.7618E+01  0.5123E-02  0.0000E+00  0.1497E+02  0.2213E+01  0.0000E+00  0.0000E+00  0.0000E+00  0.0000E+00  0.0000E+00  0.0000E+00  0.0000E+00  0.0000E+00  0.0000E+00  0.0000E+00  0.0000E+00
RES          1    9  0.2596E+08  0.2282E+00  0.6616E-01  0.1579E+06  0.6041E+06  0.0000E+00  0.1211E+02  0.1172E+03  0.6849E+03  0.4550E+02  0.2553E+02  0.1518E+00  0.8271E+01  0.5419E+01  0.3281E-01  0.6324E+03  0.1999E+02  0.1105E+00  0.8928E+01  0.4075E+00  0.2333E-02  0.2521E+02  0.2833E+01  0.1662E-01  0.1067E+02  0.7846E+00  0.4607E-02  0.0000E+00  0.1445E+01  0.2365E+01  0.0000E+00  0.0000E+00  0.0000E+00  0.0000E+00  0.0000E+00  0.0000E+00  0.0000E+00  0.0000E+00  0.0000E+00  0.0000E+00  0.0000E+00
RES          1   10  0.2599E+08  0.1102E+01  0.1196E+01  0.6219E+06  0.3470E+06  0.0000E+00  0.1606E+03  0.2189E+04  0.6838E+03  0.3877E+04  0.7242E+03  0.2245E+00  0.8473E+03  0.1499E+03  0.4556E-01  0.2245E+04  0.4583E+03  0.1494E+00  0.7821E+02  0.1228E+02  0.4050E-02  0.7054E+03  0.1003E+03  0.3193E-01  0.3751E+03  0.4109E+02  0.1278E-01  0.0000E+00  0.3935E+02  0.1912E+01  0.0000E+00  0.0000E+00  0.0000E+00  0.0000E+00  0.0000E+00  0.0000E+00  0.0000E+00  0.0000E+00  0.0000E+00  0.0000E+00  0.0000E+00
RES          1   11  0.2600E+08  0.2681E+01  0.2858E+01  0.7163E+06  0.2424E+06  0.0000E+00  0.6630E+03  0.5064E+04  0.6837E+03  0.1543E+05  0.3655E+04  0.3232E+00  0.4308E+04  0.8855E+03  0.7042E-01  0.1903E+04  0.1258E+04  0.1696E+00  0.5720E+02  0.3154E+02  0.4324E-02  0.1351E+04  0.3754E+03  0.4042E-01  0.8444E+03  0.1949E+03  0.1828E-01  0.1105E+03  0.1790E+03  0.1252E+01  0.0000E+00  0.0000E+00  0.0000E+00  0.0000E+00  0.0000E+00  0.0000E+00  0.0000E+00  0.0000E+00  0.0000E+00  0.0000E+00  0.0000E+00
RES          1   12  0.2600E+08  0.7430E+01  0.7694E+01  0.8534E+06  0.1466E+06  0.0000E+00  0.1993E+04  0.1413E+05  0.6855E+03  0.3017E+05  0.2156E+05  0.9940E+00  0.8943E+04  0.5835E+04  0.2661E+00  0.2936E+04  0.3270E+04  0.1601E+00  0.4506E+02  0.8290E+02  0.3959E-02  0.1645E+04  0.1573E+04  0.7466E-01  0.1174E+04  0.9243E+03  0.4338E-01  0.5243E+03  0.9263E+03  0.1132E+01  0.0000E+00  0.0000E+00  0.0000E+00  0.0000E+00  0.0000E+00  0.0000E+00  0.0000E+00  0.0000E+00  0.0000E+00  0.0000E+00  0.0000E+00
RES          1 2005  0.2600E+08  0.7451E+01  0.7532E+01  0.7136E+07  0.4583E+07  0.0000E+00  0.2107E+05  0.1622E+06  0.6832E+03  0.2395E+06  0.2097E+06  0.5850E+00  0.7364E+05  0.6090E+05  0.1619E+00  0.4475E+05  0.3827E+05  0.1571E+00  0.5424E+03  0.4225E+03  0.2218E-02  0.1490E+05  0.1279E+05  0.4100E-01  0.7797E+04  0.6213E+04  0.1890E-01  0.3252E+04  0.9336E+04  0.1132E+01  0.0000E+00  0.0000E+00  0.0000E+00  0.0000E+00  0.0000E+00  0.0000E+00  0.0000E+00  0.0000E+00  0.0000E+00  0.0000E+00  0.0000E+00
RES          1    1  0.2600E+08  0.6857E+01  0.7009E+01  0.5308E+06  0.1249E+06  0.0000E+00  0.1190E+04  0.1287E+05  0.6858E+03  0.4501E+04  0.1200E+05  0.6507E+00  0.1338E+04  0.3046E+04  0.1653E+00  0.1690E+04  0.2293E+04  0.1236E+00  0.1903E+02  0.4319E+02  0.2339E-02  0.4386E+03  0.8953E+03  0.4836E-01  0.1663E+03  0.4777E+03  0.2606E-01  0.0000E+00  0.5513E+03  0.1395E+01  0.0000E+00  0.0000E+00  0.0000E+00  0.0000E+00  0.0000E+00  0.0000E+00  0.0000E+00  0.0000E+00  0.0000E+00  0.0000E+00  0.0000E+00
RES          1    2  0.2600E+08  0.8866E+01  0.8953E+01  0.3547E+06  0.1523E+06  0.0000E+00  0.1454E+04  0.1432E+05  0.7112E+03  0.3493E+04  0.7953E+04  0.3955E+00  0.1054E+04  0.1982E+04  0.9851E-01  0.1619E+04  0.1975E+04  0.9820E-01  0.1291E+02  0.2881E+02  0.1434E-02  0.3222E+03  0.6328E+03  0.3146E-01  0.1280E+03  0.2876E+03  0.1431E-01  0.0000E+00  0.4051E+03  0.1695E+01  0.0000E+00  0.0000E+00  0.0000E+00  0.0000E+00  0.0000E+00  0.0000E+00  0.0000E+00  0.0000E+00  0.0000E+00  0.0000E+00  0.0000E+00
RES          1    3  0.2600E+08  0.7193E+01  0.7163E+01  0.2830E+06  0.3621E+06  0.0000E+00  0.1277E+04  0.1316E+05  0.6858E+03  0.3296E+04  0.4683E+04  0.2426E+00  0.1011E+04  0.1176E+04  0.6096E-01  0.8986E+03  0.1354E+04  0.7004E-01  0.1534E+02  0.1850E+02  0.9601E-03  0.3331E+03  0.4060E+03  0.2107E-01  0.1105E+03  0.1551E+03  0.8020E-02  0.0000E+00  0.2649E+03  0.1887E+01  0.0000E+00  0.0000E+00  0.0000E+00  0.0000E+00  0.0000E+00  0.0000E+00  0.0000E+00  0.0000E+00  0.0000E+00  0.0000E+00  0.0000E+00
RES          1    4  0.2600E+08  0.6961E+01  0.7033E+01  0.6597E+06  0.4737E+06  0.0000E+00  0.1293E+04  0.1250E+05  0.6858E+03  0.2453E+05  0.1001E+05  0.5194E+00  0.7521E+04  0.2858E+04  0.1474E+00  0.9753E+03  0.1048E+04  0.5760E-01  0.1017E+03  0.3657E+02  0.1957E-02  0.2313E+04  0.9055E+03  0.4732E-01  0.6738E+03  0.2770E+03  0.1450E-01  0.9491E+02  0.4962E+03  0.1199E+01  0.0000E+00  0.0000E+00  0.0000E+00  0.0000E+00  0.0000E+00  0.0000E+00  0.0000E+00  0.0000E+00  0.0000E+00  0.0000E+00  0.0000E+00
RES          1    5  0.2600E+08  0.4206E+01  0.4150E+01  0.3251E+06  0.4773E+06  0.0000E+00  0.5976E+03  0.7622E+04  0.6858E+03  0.1051E+04  0.6481E+04  0.5698E+00  0.2928E+03  0.1780E+04  0.1559E+00  0.1331E+05  0.4182E+04  0.3709E+00  0.1676E+02  0.3090E+02  0.2733E-02  0.1780E+03  0.6334E+03  0.5578E-01  0.3965E+02  0.1698E+03  0.1489E-01  0.0000E+00  0.3102E+03  0.1468E+01  0.0000E+00  0.0000E+00  0.0000E+00  0.0000E+00  0.0000E+00  0.0000E+00  0.0000E+00  0.0000E+00  0.0000E+00  0.0000E+00  0.0000E+00
RES          1    6  0.2600E+08  0.1034E+02  0.1061E+02  0.1177E+07  0.4703E+06  0.0000E+00  0.3856E+04  0.2030E+05  0.7192E+03  0.4962E+05  0.3022E+05  0.8593E+00  0.1557E+05  0.9055E+04  0.2479E+00  0.1707E+04  0.6378E+04  0.2633E+00  0.1902E+03  0.8471E+02  0.3609E-02  0.3217E+04  0.1926E+04  0.6540E-01  0.1716E+04  0.9069E+03  0.2723E-01  0.1096E+04  0.1324E+04  0.1019E+01  0.0000E+00  0.0000E+00  0.0000E+00  0.0000E+00  0.0000E+00  0.0000E+00  0.0000E+00  0.0000E+00  0.0000E+00  0.0000E+00  0.0000E+00
RES          1    7  0.2600E+08  0.4294E+01  0.4077E+01  0.2201E+06  0.8003E+06  0.0000E+00  0.6156E+03  0.8134E+04  0.7448E+03  0.4188E+02  0.9285E+04  0.8457E+00  0.1181E+02  0.2572E+04  0.2340E+00  0.4495E+02  0.1282E+04  0.1168E+00  0.1295E+02  0.5253E+02  0.4790E-02  0.4934E+02  0.7445E+03  0.6782E-01  0.1232E+02  0.3007E+03  0.2737E-01  0.0000E+00  0.4143E+03  0.1272E+01  0.0000E+00  0.0000E+00  0.0000E+00  0.0000E+00  0.0000E+00  0.0000E+00  0.0000E+00  0.0000E+00  0.0000E+00  0.0000E+00  0.0000E+00
RES          1    8  0.2600E+08  0.2222E+01  0.2120E+01  0.3673E+06  0.6400E+06  0.0000E+00  0.2687E+03  0.4229E+04  0.7448E+03  0.2525E+03  0.3163E+04  0.5423E+00  0.6739E+02  0.8033E+03  0.1367E+00  0.8043E+02  0.4417E+03  0.7562E-01  0.2187E+02  0.2068E+02  0.3575E-02  0.8398E+02  0.2620E+03  0.4495E-01  0.3779E+02  0.9638E+02  0.1632E-01  0.0000E+00  0.1468E+03  0.1465E+01  0.0000E+00  0.0000E+00  0.0000E+00  0.0000E+00  0.0000E+00  0.0000E+00  0.0000E+00  0.0000E+00  0.0000E+00  0.0000E+00  0.0000E+00
RES          1    9  0.2600E+08  0.3838E+01  0.4053E+01  0.9471E+06  0.3881E+06  0.0000E+00  0.1040E+04  0.7825E+04  0.7448E+03  0.1434E+05  0.7600E+04  0.7098E+00  0.3909E+04  0.1957E+04  0.1759E+00  0.2174E+04  0.6907E+03  0.8817E-01  0.1295E+03  0.4421E+02  0.5574E-02  0.1382E+04  0.6138E+03  0.6423E-01  0.6851E+03  0.2659E+03  0.2672E-01  0.1939E+03  0.3387E+03  0.1301E+01  0.0000E+00  0.0000E+00  0.0000E+00  0.0000E+00  0.0000E+00  0.0000E+00  0.0000E+00  0.0000E+00  0.0000E+00  0.0000E+00  0.0000E+00
RES          1   10  0.2600E+08  0.1006E+01  0.1071E+01  0.5038E+06  0.3302E+06  0.0000E+00  0.1043E+03  0.2136E+04  0.7448E+03  0.3413E+04  0.1804E+04  0.6227E+00  0.7820E+03  0.4001E+03  0.1397E+00  0.2972E+04  0.4648E+03  0.1440E+00  0.6600E+02  0.1879E+02  0.6343E-02  0.6221E+03  0.1881E+03  0.6293E-01  0.3128E+03  0.7469E+02  0.2472E-01  0.0000E+00  0.7674E+02  0.1328E+01  0.0000E+00  0.0000E+00  0.0000E+00  0.0000E+00  0.0000E+00  0.0000E+00  0.0000E+00  0.0000E+00  0.0000E+00  0.0000E+00  0.0000E+00
RES          1   11  0.2600E+08  0.9922E+01  0.1021E+02  0.9748E+06  0.2220E+06  0.0000E+00  0.3575E+04  0.2057E+05  0.7584E+03  0.5494E+05  0.3410E+05  0.1018E+01  0.1529E+05  0.8673E+04  0.2443E+00  0.5825E+04  0.5684E+04  0.2312E+00  0.1030E+03  0.1549E+03  0.6798E-02  0.2927E+04  0.2394E+04  0.8881E-01  0.2078E+04  0.1319E+04  0.4362E-01  0.1132E+04  0.1319E+04  0.9803E+00  0.0000E+00  0.0000E+00  0.0000E+00  0.0000E+00  0.0000E+00  0.0000E+00  0.0000E+00  0.0000E+00  0.0000E+00  0.0000E+00  0.0000E+00
RES          1   12  0.2600E+08  0.9293E+01  0.9433E+01  0.5629E+06  0.1891E+06  0.0000E+00  0.2195E+04  0.1997E+05  0.7903E+03  0.1766E+05  0.2588E+05  0.1032E+01  0.5206E+04  0.6633E+04  0.2618E+00  0.3833E+04  0.3977E+04  0.1520E+00  0.4320E+02  0.8301E+02  0.3435E-02  0.1264E+04  0.1678E+04  0.6615E-01  0.8598E+03  0.9896E+03  0.3861E-01  0.1940E+03  0.1066E+04  0.1119E+01  0.0000E+00  0.0000E+00  0.0000E+00  0.0000E+00  0.0000E+00  0.0000E+00  0.0000E+00  0.0000E+00  0.0000E+00  0.0000E+00  0.0000E+00
RES          1 2006  0.2600E+08  0.6187E+01  0.6259E+01  0.6907E+07  0.4630E+07  0.0000E+00  0.1747E+05  0.1436E+06  0.7233E+03  0.1772E+06  0.1532E+06  0.6673E+00  0.5205E+05  0.4093E+05  0.1724E+00  0.3513E+05  0.2977E+05  0.1493E+00  0.7325E+03  0.6168E+03  0.3634E-02  0.1313E+05  0.1128E+05  0.5535E-01  0.6821E+04  0.5320E+04  0.2352E-01  0.2710E+04  0.6713E+04  0.1119E+01  0.0000E+00  0.0000E+00  0.0000E+00  0.0000E+00  0.0000E+00  0.0000E+00  0.0000E+00  0.0000E+00  0.0000E+00  0.0000E+00  0.0000E+00
RES          1    1  0.2600E+08  0.1059E+02  0.1074E+02  0.5761E+06  0.1679E+06  0.0000E+00  0.2186E+04  0.2273E+05  0.7903E+03  0.8376E+04  0.1956E+05  0.6742E+00  0.2406E+04  0.5038E+04  0.1736E+00  0.2852E+04  0.3782E+04  0.1310E+00  0.2964E+02  0.6062E+02  0.2092E-02  0.7527E+03  0.1415E+04  0.4882E-01  0.3482E+03  0.7732E+03  0.2663E-01  0.5190E+01  0.8891E+03  0.1529E+01  0.0000E+00  0.0000E+00  0.0000E+00  0.0000E+00  0.0000E+00  0.0000E+00  0.0000E+00  0.0000E+00  0.0000E+00  0.0000E+00  0.0000E+00
RES          1    2  0.2600E+08  0.1032E+02  0.1035E+02  0.2428E+06  0.1900E+06  0.0000E+00  0.1826E+04  0.1908E+05  0.8196E+03  0.6075E+04  0.9328E+04  0.3850E+00  0.1864E+04  0.2442E+04  0.1005E+00  0.1478E+04  0.2144E+04  0.9011E-01  0.8482E+01  0.2269E+02  0.9369E-03  0.3772E+03  0.6416E+03  0.2651E-01  0.1956E+03  0.3210E+03  0.1321E-01  0.2115E+02  0.4846E+03  0.1851E+01  0.0000E+00  0.0000E+00  0.0000E+00  0.0000E+00  0.0000E+00  0.0000E+00  0.0000E+00  0.0000E+00  0.0000E+00  0.0000E+00  0.0000E+00
RES          1    3  0.2600E+08  0.7474E+01  0.7435E+01  0.3327E+06  0.4356E+06  0.0000E+00  0.1438E+04  0.1574E+05  0.7903E+03  0.1745E+05  0.8689E+04  0.4225E+00  0.5452E+04  0.2463E+04  0.1190E+00  0.1757E+04  0.1437E+04  0.7115E-01  0.2904E+02  0.1735E+02  0.8726E-03  0.1179E+04  0.5984E+03  0.2939E-01  0.5772E+03  0.2792E+03  0.1364E-01  0.1511E+03  0.4515E+03  0.1338E+01  0.0000E+00  0.0000E+00  0.0000E+00  0.0000E+00  0.0000E+00  0.0000E+00  0.0000E+00  0.0000E+00  0.0000E+00  0.0000E+00  0.0000E+00
RES          1    4  0.2600E+08  0.6611E+01  0.6672E+01  0.5648E+06  0.4062E+06  0.0000E+00  0.1348E+04  0.1367E+05  0.7903E+03  0.3227E+05  0.1560E+05  0.8058E+00  0.1016E+05  0.4635E+04  0.2363E+00  0.9973E+03  0.1116E+04  0.6516E-01  0.1006E+03  0.2894E+02  0.1664E-02  0.2538E+04  0.1060E+04  0.5622E-01  0.1047E+04  0.4917E+03  0.2562E-01  0.3764E+03  0.7111E+03  0.1027E+01  0.0000E+00  0.0000E+00  0.0000E+00  0.0000E+00  0.0000E+00  0.0000E+00  0.0000E+00  0.0000E+00  0.0000E+00  0.0000E+00  0.0000E+00
RES          1    5  0.2600E+08  0.5410E+01  0.5389E+01  0.5119E+06  0.5684E+06  0.0000E+00  0.9026E+03  0.1141E+05  0.7903E+03  0.1116E+05  0.1463E+05  0.9894E+00  0.3322E+04  0.4139E+04  0.2791E+00  0.2337E+05  0.7411E+04  0.4866E+00  0.7305E+02  0.5785E+02  0.3936E-02  0.1345E+04  0.1303E+04  0.8784E-01  0.3107E+03  0.4192E+03  0.2844E-01  0.4655E+02  0.6304E+03  0.1159E+01  0.0000E+00  0.0000E+00  0.0000E+00  0.0000E+00  0.0000E+00  0.0000E+00  0.0000E+00  0.0000E+00  0.0000E+00  0.0000E+00  0.0000E+00
RES          1    6  0.2600E+08  0.5639E+01  0.5683E+01  0.6314E+06  0.5189E+06  0.0000E+00  0.1275E+04  0.1164E+05  0.7903E+03  0.2034E+05  0.1633E+05  0.1024E+01  0.6269E+04  0.4615E+04  0.2839E+00  0.1203E+04  0.6759E+04  0.4242E+00  0.1025E+03  0.6624E+02  0.4821E-02  0.1707E+04  0.1413E+04  0.9153E-01  0.7363E+03  0.4887E+03  0.3096E-01  0.2767E+03  0.6899E+03  0.1142E+01  0.0000E+00  0.0000E+00  0.0000E+00  0.0000E+00  0.0000E+00  0.0000E+00  0.0000E+00  0.0000E+00  0.0000E+00  0.0000E+00  0.0000E+00
RES          1    7  0.2600E+08  0.5979E+00  0.4316E+00  0.2444E+06  0.6897E+06  0.0000E+00  0.4538E+02  0.9136E+03  0.7910E+03  0.2955E+02  0.9542E+03  0.8021E+00  0.6340E+01  0.2467E+03  0.2036E+00  0.4258E+02  0.3912E+03  0.3290E+00  0.1586E+02  0.5169E+01  0.4450E-02  0.3130E+02  0.8684E+02  0.7318E-01  0.1559E+02  0.2781E+02  0.2304E-01  0.0000E+00  0.4068E+02  0.1248E+01  0.0000E+00  0.0000E+00  0.0000E+00  0.0000E+00  0.0000E+00  0.0000E+00  0.0000E+00  0.0000E+00  0.0000E+00  0.0000E+00  0.0000E+00
RES          1    8  0.2538E+08  0.4744E-01  0.0000E+00  0.5582E+05  0.7987E+06  0.0000E+00  0.1849E+01  0.0000E+00  0.8010E+03  0.2031E+01  0.0000E+00  0.7163E+00  0.3174E+00  0.0000E+00  0.1656E+00  0.8955E+01  0.0000E+00  0.2945E+00  0.2882E+01  0.0000E+00  0.4293E-02  0.4758E+01  0.0000E+00  0.6590E-01  0.1092E+01  0.0000E+00  0.1902E-01  0.0000E+00  0.0000E+00  0.1332E+01  0.0000E+00  0.0000E+00  0.0000E+00  0.0000E+00  0.0000E+00  0.0000E+00  0.0000E+00  0.0000E+00  0.0000E+00  0.0000E+00  0.0000E+00
RES          1    9  0.2515E+08  0.9882E-01  0.0000E+00  0.1386E+06  0.6287E+06  0.0000E+00  0.6413E+01  0.0000E+00  0.8142E+03  0.5415E+02  0.0000E+00  0.6524E+00  0.1044E+02  0.0000E+00  0.1376E+00  0.8734E+03  0.0000E+00  0.2850E+00  0.3642E+01  0.0000E+00  0.4025E-02  0.1724E+02  0.0000E+00  0.6033E-01  0.8993E+01  0.0000E+00  0.1597E-01  0.0000E+00  0.0000E+00  0.1424E+01  0.0000E+00  0.0000E+00  0.0000E+00  0.0000E+00  0.0000E+00  0.0000E+00  0.0000E+00  0.0000E+00  0.0000E+00  0.0000E+00  0.0000E+00
RES          1   10  0.2600E+08  0.9625E+00  0.7555E+00  0.6726E+06  0.3773E+06  0.0000E+00  0.1486E+03  0.1599E+04  0.8114E+03  0.3621E+04  0.1262E+04  0.6003E+00  0.8631E+03  0.2461E+03  0.1167E+00  0.2367E+04  0.6115E+03  0.2904E+00  0.5523E+02  0.9436E+01  0.4033E-02  0.5746E+03  0.1297E+03  0.5748E-01  0.3372E+03  0.4258E+02  0.1537E-01  0.0000E+00  0.4836E+02  0.1411E+01  0.0000E+00  0.0000E+00  0.0000E+00  0.0000E+00  0.0000E+00  0.0000E+00  0.0000E+00  0.0000E+00  0.0000E+00  0.0000E+00  0.0000E+00
RES          1   11  0.2600E+08  0.1661E+00  0.1137E+00  0.1294E+06  0.2702E+06  0.0000E+00  0.8166E+01  0.2328E+03  0.7906E+03  0.6393E+02  0.1729E+03  0.5895E+00  0.1602E+02  0.3203E+02  0.1095E+00  0.5972E+03  0.9105E+02  0.3075E+00  0.3330E+01  0.1426E+01  0.4848E-02  0.2264E+02  0.1852E+02  0.6304E-01  0.1346E+02  0.5994E+01  0.2040E-01  0.0000E+00  0.6524E+01  0.1517E+01  0.0000E+00  0.0000E+00  0.0000E+00  0.0000E+00  0.0000E+00  0.0000E+00  0.0000E+00  0.0000E+00  0.0000E+00  0.0000E+00  0.0000E+00
RES          1   12  0.2600E+08  0.1746E+01  0.1923E+01  0.6370E+06  0.1568E+06  0.0000E+00  0.4768E+03  0.4070E+04  0.7905E+03  0.2079E+05  0.4878E+04  0.5594E+00  0.6442E+04  0.1182E+04  0.1010E+00  0.1227E+04  0.1366E+04  0.2864E+00  0.4233E+02  0.2307E+02  0.4440E-02  0.1460E+04  0.4156E+03  0.5891E-01  0.7411E+03  0.1607E+03  0.1836E-01  0.2358E+03  0.1930E+03  0.1061E+01  0.0000E+00  0.0000E+00  0.0000E+00  0.0000E+00  0.0000E+00  0.0000E+00  0.0000E+00  0.0000E+00  0.0000E+00  0.0000E+00  0.0000E+00
RES          1 2007  0.2600E+08  0.4070E+01  0.4056E+01  0.4737E+07  0.5208E+07  0.0000E+00  0.9664E+04  0.1011E+06  0.7951E+03  0.1202E+06  0.9140E+05  0.6856E+00  0.3681E+05  0.2504E+05  0.1689E+00  0.3677E+05  0.2511E+05  0.2560E+00  0.4666E+03  0.2928E+03  0.3380E-02  0.1001E+05  0.7081E+04  0.6005E-01  0.4332E+04  0.3010E+04  0.2089E-01  0.1113E+04  0.4145E+04  0.1061E+01  0.0000E+00  0.0000E+00  0.0000E+00  0.0000E+00  0.0000E+00  0.0000E+00  0.0000E+00  0.0000E+00  0.0000E+00  0.0000E+00  0.0000E+00
RES          1    1  0.2600E+08  0.8646E+00  0.9198E+00  0.3321E+06  0.1841E+06  0.0000E+00  0.8370E+02  0.1947E+04  0.7903E+03  0.4779E+04  0.2703E+04  0.1085E+01  0.1389E+04  0.6663E+03  0.2665E+00  0.1327E+04  0.6467E+03  0.2628E+00  0.3405E+02  0.1270E+02  0.5122E-02  0.6344E+03  0.2410E+03  0.9655E-01  0.1932E+03  0.8909E+02  0.3573E-01  0.0000E+00  0.1053E+03  0.1101E+01  0.0000E+00  0.0000E+00  0.0000E+00  0.0000E+00  0.0000E+00  0.0000E+00  0.0000E+00  0.0000E+00  0.0000E+00  0.0000E+00  0.0000E+00
RES          1    2  0.2600E+08  0.2401E+01  0.2534E+01  0.5151E+06  0.1830E+06  0.0000E+00  0.2939E+03  0.5017E+04  0.7903E+03  0.1238E+05  0.7387E+04  0.1137E+01  0.3637E+04  0.1781E+04  0.2725E+00  0.1427E+04  0.1537E+04  0.2446E+00  0.8930E+02  0.4012E+02  0.6158E-02  0.1662E+04  0.7580E+03  0.1152E+00  0.3605E+03  0.2189E+03  0.3403E-01  0.0000E+00  0.2770E+03  0.1078E+01  0.0000E+00  0.0000E+00  0.0000E+00  0.0000E+00  0.0000E+00  0.0000E+00  0.0000E+00  0.0000E+00  0.0000E+00  0.0000E+00  0.0000E+00
RES          1    3  0.2600E+08  0.5499E+01  0.5651E+01  0.6874E+06  0.2801E+06  0.0000E+00  0.9618E+03  0.1196E+05  0.7903E+03  0.2384E+05  0.1756E+05  0.1132E+01  0.7435E+04  0.4399E+04  0.2800E+00  0.1626E+04  0.2873E+04  0.1951E+00  0.8506E+02  0.9186E+02  0.6122E-02  0.2240E+04  0.1850E+04  0.1208E+00  0.6084E+03  0.4600E+03  0.2991E-01  0.6354E+02  0.6695E+03  0.1012E+01  0.0000E+00  0.0000E+00  0.0000E+00  0.0000E+00  0.0000E+00  0.0000E+00  0.0000E+00  0.0000E+00  0.0000E+00  0.0000E+00  0.0000E+00
RES          1    4  0.2600E+08  0.1589E+02  0.1619E+02  0.1072E+07  0.2750E+06  0.0000E+00  0.4970E+04  0.3463E+05  0.8225E+03  0.1386E+06  0.1051E+06  0.2260E+01  0.4499E+05  0.3209E+05  0.6806E+00  0.2650E+04  0.4375E+04  0.1073E+00  0.2070E+03  0.2018E+03  0.4807E-02  0.7762E+04  0.6518E+04  0.1450E+00  0.3558E+04  0.2630E+04  0.5804E-01  0.2659E+04  0.3795E+04  0.7805E+00  0.0000E+00  0.0000E+00  0.0000E+00  0.0000E+00  0.0000E+00  0.0000E+00  0.0000E+00  0.0000E+00  0.0000E+00  0.0000E+00  0.0000E+00
RES          1    5  0.2600E+08  0.1012E+02  0.1010E+02  0.4107E+06  0.4641E+06  0.0000E+00  0.2068E+04  0.2239E+05  0.8275E+03  0.6824E+04  0.3753E+05  0.1380E+01  0.2063E+04  0.1091E+05  0.4013E+00  0.1253E+05  0.7491E+04  0.2766E+00  0.4283E+02  0.8846E+02  0.3251E-02  0.7380E+03  0.2567E+04  0.9433E-01  0.1576E+03  0.8947E+03  0.3293E-01  0.6914E+01  0.1500E+04  0.1099E+01  0.0000E+00  0.0000E+00  0.0000E+00  0.0000E+00  0.0000E+00  0.0000E+00  0.0000E+00  0.0000E+00  0.0000E+00  0.0000E+00  0.0000E+00
RES          1    6  0.2600E+08  0.5935E+01  0.5751E+01  0.2157E+06  0.6940E+06  0.0000E+00  0.9453E+03  0.1233E+05  0.8275E+03  0.6300E+02  0.1025E+05  0.6652E+00  0.1889E+02  0.2778E+04  0.1795E+00  0.3651E+03  0.2705E+04  0.1762E+00  0.1176E+02  0.3416E+02  0.2238E-02  0.5299E+02  0.7887E+03  0.5128E-01  0.1176E+02  0.2208E+03  0.1429E-01  0.0000E+00  0.4607E+03  0.1443E+01  0.0000E+00  0.0000E+00  0.0000E+00  0.0000E+00  0.0000E+00  0.0000E+00  0.0000E+00  0.0000E+00  0.0000E+00  0.0000E+00  0.0000E+00
RES          1    7  0.2600E+08  0.1608E+01  0.1478E+01  0.2597E+06  0.6094E+06  0.0000E+00  0.1861E+03  0.3275E+04  0.8275E+03  0.2483E+02  0.1727E+04  0.4094E+00  0.7592E+01  0.4347E+03  0.1007E+00  0.5034E+02  0.4760E+03  0.1132E+00  0.1252E+02  0.6991E+01  0.1773E-02  0.3295E+02  0.1377E+03  0.3292E-01  0.8949E+01  0.3609E+02  0.8424E-02  0.0000E+00  0.8235E+02  0.1637E+01  0.0000E+00  0.0000E+00  0.0000E+00  0.0000E+00  0.0000E+00  0.0000E+00  0.0000E+00  0.0000E+00  0.0000E+00  0.0000E+00  0.0000E+00
RES          1    8  0.2600E+08  0.6714E+00  0.6388E+00  0.5288E+06  0.6160E+06  0.0000E+00  0.9217E+02  0.1416E+04  0.8308E+03  0.9220E+03  0.6031E+03  0.3558E+00  0.2463E+03  0.1332E+03  0.7995E-01  0.4950E+02  0.1560E+03  0.9765E-01  0.3280E+02  0.4034E+01  0.1970E-02  0.1895E+03  0.5462E+02  0.2978E-01  0.9416E+02  0.1482E+02  0.7188E-02  0.0000E+00  0.2797E+02  0.1708E+01  0.0000E+00  0.0000E+00  0.0000E+00  0.0000E+00  0.0000E+00  0.0000E+00  0.0000E+00  0.0000E+00  0.0000E+00  0.0000E+00  0.0000E+00
RES          1    9  0.2600E+08  0.2733E+01  0.2913E+01  0.8974E+06  0.4299E+06  0.0000E+00  0.6158E+03  0.6248E+04  0.8276E+03  0.2027E+05  0.5526E+04  0.6663E+00  0.4386E+04  0.1165E+04  0.1381E+00  0.3327E+04  0.9759E+03  0.1262E+00  0.2862E+03  0.5001E+02  0.7548E-02  0.2740E+04  0.6105E+03  0.7690E-01  0.1036E+04  0.1991E+03  0.2363E-01  0.8137E+02  0.2157E+03  0.1235E+01  0.0000E+00  0.0000E+00  0.0000E+00  0.0000E+00  0.0000E+00  0.0000E+00  0.0000E+00  0.0000E+00  0.0000E+00  0.0000E+00  0.0000E+00
RES          1   10  0.2600E+08  0.3822E+00  0.3050E+00  0.1949E+06  0.4018E+06  0.0000E+00  0.2176E+02  0.6760E+03  0.8275E+03  0.9822E+02  0.6392E+03  0.7813E+00  0.2254E+02  0.1251E+03  0.1527E+00  0.5785E+03  0.1355E+03  0.1652E+00  0.9206E+01  0.8501E+01  0.1038E-01  0.4259E+02  0.8100E+02  0.9897E-01  0.2356E+02  0.2681E+02  0.3268E-01  0.0000E+00  0.2387E+02  0.1340E+01  0.0000E+00  0.0000E+00  0.0000E+00  0.0000E+00  0.0000E+00  0.0000E+00  0.0000E+00  0.0000E+00  0.0000E+00  0.0000E+00  0.0000E+00
RES          1   11  0.2600E+08  0.5519E+01  0.5807E+01  0.9710E+06  0.2248E+06  0.0000E+00  0.1647E+04  0.1250E+05  0.8295E+03  0.4362E+05  0.2042E+05  0.1139E+01  0.1239E+05  0.4955E+04  0.2607E+00  0.2717E+04  0.2314E+04  0.1607E+00  0.1185E+03  0.1333E+03  0.9369E-02  0.3099E+04  0.1819E+04  0.1136E+00  0.1837E+04  0.8091E+03  0.4656E-01  0.6182E+03  0.7592E+03  0.9517E+00  0.0000E+00  0.0000E+00  0.0000E+00  0.0000E+00  0.0000E+00  0.0000E+00  0.0000E+00  0.0000E+00  0.0000E+00  0.0000E+00  0.0000E+00
RES          1   12  0.2600E+08  0.5128E+01  0.5268E+01  0.4723E+06  0.9710E+05  0.0000E+00  0.8157E+03  0.1172E+05  0.8309E+03  0.6294E+04  0.1719E+05  0.1243E+01  0.1798E+04  0.4132E+04  0.2993E+00  0.1718E+04  0.2044E+04  0.1464E+00  0.4059E+02  0.9645E+02  0.6961E-02  0.7424E+03  0.1550E+04  0.1117E+00  0.3567E+03  0.6870E+03  0.4964E-01  0.0000E+00  0.6533E+03  0.1148E+01  0.0000E+00  0.0000E+00  0.0000E+00  0.0000E+00  0.0000E+00  0.0000E+00  0.0000E+00  0.0000E+00  0.0000E+00  0.0000E+00  0.0000E+00
RES          1 2008  0.2600E+08  0.4712E+01  0.4778E+01  0.6557E+07  0.4459E+07  0.0000E+00  0.1270E+05  0.1241E+06  0.8186E+03  0.2578E+06  0.2267E+06  0.1019E+01  0.7838E+05  0.6357E+05  0.2586E+00  0.2837E+05  0.2573E+05  0.1726E+00  0.9699E+03  0.7684E+03  0.5466E-02  0.1994E+05  0.1698E+05  0.9038E-01  0.8247E+04  0.6287E+04  0.3102E-01  0.3429E+04  0.8570E+04  0.1148E+01  0.0000E+00  0.0000E+00  0.0000E+00  0.0000E+00  0.0000E+00  0.0000E+00  0.0000E+00  0.0000E+00  0.0000E+00  0.0000E+00  0.0000E+00
RES          1    1  0.2600E+08  0.8359E+01  0.8476E+01  0.4547E+06  0.1410E+06  0.0000E+00  0.1596E+04  0.1886E+05  0.8309E+03  0.1342E+05  0.1944E+05  0.8445E+00  0.4085E+04  0.4790E+04  0.2072E+00  0.1749E+04  0.2494E+04  0.1098E+00  0.3209E+02  0.8965E+02  0.3941E-02  0.1043E+04  0.1694E+04  0.7386E-01  0.3328E+03  0.6485E+03  0.2834E-01  0.3851E+02  0.8021E+03  0.1336E+01  0.0000E+00  0.0000E+00  0.0000E+00  0.0000E+00  0.0000E+00  0.0000E+00  0.0000E+00  0.0000E+00  0.0000E+00  0.0000E+00  0.0000E+00
RES          1    2  0.2600E+08  0.8460E+01  0.8504E+01  0.3352E+06  0.2326E+06  0.0000E+00  0.1442E+04  0.1648E+05  0.8617E+03  0.1045E+05  0.9100E+04  0.4474E+00  0.3297E+04  0.2222E+04  0.1066E+00  0.9163E+03  0.1450E+04  0.7630E-01  0.1124E+02  0.3623E+02  0.1905E-02  0.6282E+03  0.7629E+03  0.3856E-01  0.3469E+03  0.2752E+03  0.1346E-01  0.1061E+03  0.4281E+03  0.1277E+01  0.0000E+00  0.0000E+00  0.0000E+00  0.0000E+00  0.0000E+00  0.0000E+00  0.0000E+00  0.0000E+00  0.0000E+00  0.0000E+00  0.0000E+00
RES          1    3  0.2600E+08  0.1072E+02  0.1094E+02  0.8402E+06  0.2404E+06  0.0000E+00  0.2361E+04  0.2436E+05  0.8309E+03  0.4278E+05  0.3199E+05  0.1075E+01  0.1345E+05  0.9392E+04  0.3147E+00  0.2557E+04  0.2060E+04  0.7083E-01  0.7914E+02  0.5076E+02  0.1699E-02  0.2675E+04  0.1900E+04  0.6373E-01  0.1067E+04  0.8191E+03  0.2758E-01  0.3755E+03  0.1378E+04  0.1104E+01  0.0000E+00  0.0000E+00  0.0000E+00  0.0000E+00  0.0000E+00  0.0000E+00  0.0000E+00  0.0000E+00  0.0000E+00  0.0000E+00  0.0000E+00
RES          1    4  0.2600E+08  0.1082E+02  0.1084E+02  0.4723E+06  0.4197E+06  0.0000E+00  0.2206E+04  0.2334E+05  0.8309E+03  0.1214E+05  0.1926E+05  0.6793E+00  0.3764E+04  0.5458E+04  0.1922E+00  0.1780E+04  0.1905E+04  0.6781E-01  0.5816E+02  0.6052E+02  0.2137E-02  0.1220E+04  0.1529E+04  0.5382E-01  0.3717E+03  0.4880E+03  0.1720E-01  0.2638E+02  0.9045E+03  0.1319E+01  0.0000E+00  0.0000E+00  0.0000E+00  0.0000E+00  0.0000E+00  0.0000E+00  0.0000E+00  0.0000E+00  0.0000E+00  0.0000E+00  0.0000E+00
RES          1    5  0.2600E+08  0.1239E+02  0.1263E+02  0.9673E+06  0.3319E+06  0.0000E+00  0.2824E+04  0.2810E+05  0.8309E+03  0.3311E+05  0.2972E+05  0.8441E+00  0.1006E+05  0.8575E+04  0.2424E+00  0.2224E+05  0.1361E+05  0.4184E+00  0.1751E+03  0.1323E+03  0.3895E-02  0.3263E+04  0.2749E+04  0.7889E-01  0.7493E+03  0.6842E+03  0.1953E-01  0.1628E+03  0.1319E+04  0.1305E+01  0.0000E+00  0.0000E+00  0.0000E+00  0.0000E+00  0.0000E+00  0.0000E+00  0.0000E+00  0.0000E+00  0.0000E+00  0.0000E+00  0.0000E+00
RES          1    6  0.2600E+08  0.1242E+02  0.1245E+02  0.6151E+06  0.5404E+06  0.0000E+00  0.2895E+04  0.2681E+05  0.8309E+03  0.2024E+05  0.2013E+05  0.5921E+00  0.6246E+04  0.5727E+04  0.1672E+00  0.8128E+03  0.6411E+04  0.1990E+00  0.9899E+02  0.1026E+03  0.3186E-02  0.1770E+04  0.1882E+04  0.5645E-01  0.8227E+03  0.6014E+03  0.1764E-01  0.2030E+03  0.9772E+03  0.1328E+01  0.0000E+00  0.0000E+00  0.0000E+00  0.0000E+00  0.0000E+00  0.0000E+00  0.0000E+00  0.0000E+00  0.0000E+00  0.0000E+00  0.0000E+00
RES          1    7  0.2600E+08  0.7649E+01  0.7657E+01  0.5975E+06  0.5765E+06  0.0000E+00  0.1406E+04  0.1704E+05  0.8309E+03  0.1665E+04  0.7782E+04  0.3683E+00  0.4965E+03  0.2133E+04  0.1006E+00  0.2436E+03  0.1552E+04  0.7337E-01  0.2903E+02  0.4603E+02  0.2214E-02  0.2683E+03  0.7437E+03  0.3536E-01  0.1232E+03  0.2788E+03  0.1323E-01  0.0000E+00  0.4218E+03  0.1759E+01  0.0000E+00  0.0000E+00  0.0000E+00  0.0000E+00  0.0000E+00  0.0000E+00  0.0000E+00  0.0000E+00  0.0000E+00  0.0000E+00  0.0000E+00
RES          1    8  0.2600E+08  0.2361E+01  0.2359E+01  0.5811E+06  0.5868E+06  0.0000E+00  0.3030E+03  0.5250E+04  0.8309E+03  0.2949E+03  0.1436E+04  0.2156E+00  0.7949E+02  0.3660E+03  0.5409E-01  0.5745E+02  0.2777E+03  0.4177E-01  0.2870E+02  0.1255E+02  0.2022E-02  0.1026E+03  0.1537E+03  0.2343E-01  0.5309E+02  0.5696E+02  0.8579E-02  0.0000E+00  0.8488E+02  0.2010E+01  0.0000E+00  0.0000E+00  0.0000E+00  0.0000E+00  0.0000E+00  0.0000E+00  0.0000E+00  0.0000E+00  0.0000E+00  0.0000E+00  0.0000E+00
RES          1    9  0.2600E+08  0.1609E+01  0.1657E+01  0.5572E+06  0.4336E+06  0.0000E+00  0.2315E+03  0.3569E+04  0.8309E+03  0.5176E+04  0.1152E+04  0.2446E+00  0.1110E+04  0.2607E+03  0.5572E-01  0.1493E+04  0.2359E+03  0.4903E-01  0.1364E+03  0.1728E+02  0.3931E-02  0.9426E+03  0.1569E+03  0.3316E-01  0.3975E+03  0.5909E+02  0.1211E-01  0.0000E+00  0.6247E+02  0.1698E+01  0.0000E+00  0.0000E+00  0.0000E+00  0.0000E+00  0.0000E+00  0.0000E+00  0.0000E+00  0.0000E+00  0.0000E+00  0.0000E+00  0.0000E+00
RES          1   10  0.2600E+08  0.5441E+00  0.5522E+00  0.3113E+06  0.2898E+06  0.0000E+00  0.3446E+02  0.1229E+04  0.8309E+03  0.8555E+02  0.4382E+03  0.2945E+00  0.1801E+02  0.8859E+02  0.5931E-01  0.8594E+03  0.1365E+03  0.9249E-01  0.9452E+01  0.9043E+01  0.6081E-02  0.4118E+02  0.6741E+02  0.4532E-01  0.2319E+02  0.2485E+02  0.1664E-01  0.0000E+00  0.2205E+02  0.1853E+01  0.0000E+00  0.0000E+00  0.0000E+00  0.0000E+00  0.0000E+00  0.0000E+00  0.0000E+00  0.0000E+00  0.0000E+00  0.0000E+00  0.0000E+00
RES          1   11  0.2600E+08  0.7487E+01  0.7803E+01  0.1025E+07  0.2068E+06  0.0000E+00  0.2027E+04  0.1681E+05  0.8309E+03  0.2828E+05  0.1464E+05  0.6212E+00  0.7436E+04  0.3534E+04  0.1460E+00  0.5132E+04  0.2953E+04  0.1414E+00  0.8095E+02  0.1007E+03  0.5157E-02  0.2013E+04  0.1276E+04  0.5944E-01  0.1437E+04  0.7162E+03  0.3122E-01  0.4153E+03  0.6456E+03  0.1232E+01  0.0000E+00  0.0000E+00  0.0000E+00  0.0000E+00  0.0000E+00  0.0000E+00  0.0000E+00  0.0000E+00  0.0000E+00  0.0000E+00  0.0000E+00
RES          1   12  0.2600E+08  0.1177E+02  0.1203E+02  0.8396E+06  0.1450E+06  0.0000E+00  0.2646E+04  0.2678E+05  0.8309E+03  0.1905E+05  0.2236E+05  0.6860E+00  0.5346E+04  0.5520E+04  0.1689E+00  0.3917E+04  0.4496E+04  0.1391E+00  0.3961E+02  0.9770E+02  0.3022E-02  0.1337E+04  0.1802E+04  0.5552E-01  0.8488E+03  0.1031E+04  0.3167E-01  0.1190E+03  0.1002E+04  0.1375E+01  0.0000E+00  0.0000E+00  0.0000E+00  0.0000E+00  0.0000E+00  0.0000E+00  0.0000E+00  0.0000E+00  0.0000E+00  0.0000E+00  0.0000E+00
RES          1 2009  0.2600E+08  0.7852E+01  0.7962E+01  0.7597E+07  0.4144E+07  0.0000E+00  0.1997E+05  0.2086E+06  0.8309E+03  0.1867E+06  0.1774E+06  0.5763E+00  0.5539E+05  0.4807E+05  0.1514E+00  0.4176E+05  0.3758E+05  0.1235E+00  0.7789E+03  0.7554E+03  0.3268E-02  0.1531E+05  0.1472E+05  0.5147E-01  0.6573E+04  0.5683E+04  0.1978E-01  0.1447E+04  0.8048E+04  0.1375E+01  0.0000E+00  0.0000E+00  0.0000E+00  0.0000E+00  0.0000E+00  0.0000E+00  0.0000E+00  0.0000E+00  0.0000E+00  0.0000E+00  0.0000E+00
RES          1    1  0.2600E+08  0.1261E+02  0.1278E+02  0.6289E+06  0.1504E+06  0.0000E+00  0.2829E+04  0.2845E+05  0.8309E+03  0.1984E+05  0.1764E+05  0.4990E+00  0.5866E+04  0.4673E+04  0.1314E+00  0.4209E+04  0.4113E+04  0.1185E+00  0.3747E+02  0.4812E+02  0.1396E-02  0.1375E+04  0.1284E+04  0.3652E-01  0.6625E+03  0.6714E+03  0.1916E-01  0.7496E+02  0.8703E+03  0.1332E+01  0.0000E+00  0.0000E+00  0.0000E+00  0.0000E+00  0.0000E+00  0.0000E+00  0.0000E+00  0.0000E+00  0.0000E+00  0.0000E+00  0.0000E+00
RES          1    2  0.2600E+08  0.1677E+02  0.1692E+02  0.5126E+06  0.1489E+06  0.0000E+00  0.3712E+04  0.3281E+05  0.8617E+03  0.2489E+05  0.2781E+05  0.6860E+00  0.7618E+04  0.7952E+04  0.1952E+00  0.3315E+04  0.3991E+04  0.1034E+00  0.2003E+02  0.3803E+02  0.9489E-03  0.1212E+04  0.1587E+04  0.3935E-01  0.7177E+03  0.8284E+03  0.2046E-01  0.2857E+03  0.1309E+04  0.1539E+01  0.0000E+00  0.0000E+00  0.0000E+00  0.0000E+00  0.0000E+00  0.0000E+00  0.0000E+00  0.0000E+00  0.0000E+00  0.0000E+00  0.0000E+00
RES          1    3  0.2600E+08  0.1179E+02  0.1183E+02  0.4446E+06  0.3111E+06  0.0000E+00  0.2530E+04  0.2634E+05  0.8309E+03  0.2804E+04  0.7406E+04  0.2282E+00  0.8416E+03  0.1999E+04  0.6154E-01  0.1874E+04  0.2223E+04  0.6955E-01  0.1494E+02  0.1316E+02  0.4158E-03  0.2944E+03  0.4611E+03  0.1433E-01  0.1011E+03  0.2150E+03  0.6626E-02  0.3173E-01  0.4379E+03  0.2062E+01  0.0000E+00  0.0000E+00  0.0000E+00  0.0000E+00  0.0000E+00  0.0000E+00  0.0000E+00  0.0000E+00  0.0000E+00  0.0000E+00  0.0000E+00
RES          1    4  0.2600E+08  0.7302E+01  0.7221E+01  0.2641E+06  0.4737E+06  0.0000E+00  0.1260E+04  0.1555E+05  0.8309E+03  0.1952E+04  0.2674E+04  0.1413E+00  0.5780E+03  0.7066E+03  0.3731E-01  0.7033E+03  0.9779E+03  0.5155E-01  0.1948E+02  0.1113E+02  0.6081E-03  0.2723E+03  0.2354E+03  0.1262E-01  0.6310E+02  0.7519E+02  0.3973E-02  0.0000E+00  0.1758E+03  0.2313E+01  0.0000E+00  0.0000E+00  0.0000E+00  0.0000E+00  0.0000E+00  0.0000E+00  0.0000E+00  0.0000E+00  0.0000E+00  0.0000E+00  0.0000E+00
RES          1    5  0.2600E+08  0.8561E+01  0.8744E+01  0.9761E+06  0.4871E+06  0.0000E+00  0.2203E+04  0.1951E+05  0.8323E+03  0.4933E+05  0.2016E+05  0.6241E+00  0.1493E+05  0.5988E+04  0.1820E+00  0.2394E+05  0.1115E+05  0.3177E+00  0.1943E+03  0.6092E+02  0.2475E-02  0.4197E+04  0.1575E+04  0.5319E-01  0.1429E+04  0.5696E+03  0.1795E-01  0.8510E+03  0.8983E+03  0.1003E+01  0.0000E+00  0.0000E+00  0.0000E+00  0.0000E+00  0.0000E+00  0.0000E+00  0.0000E+00  0.0000E+00  0.0000E+00  0.0000E+00  0.0000E+00
RES          1    6  0.2600E+08  0.6433E+01  0.6352E+01  0.3994E+06  0.6102E+06  0.0000E+00  0.1048E+04  0.1373E+05  0.8337E+03  0.7758E+03  0.1391E+05  0.8329E+00  0.2076E+03  0.3853E+04  0.2303E+00  0.5334E+03  0.5936E+04  0.3558E+00  0.3180E+02  0.7598E+02  0.4564E-02  0.1904E+03  0.1316E+04  0.7888E-01  0.4261E+02  0.3820E+03  0.2285E-01  0.0000E+00  0.6129E+03  0.1334E+01  0.0000E+00  0.0000E+00  0.0000E+00  0.0000E+00  0.0000E+00  0.0000E+00  0.0000E+00  0.0000E+00  0.0000E+00  0.0000E+00  0.0000E+00
RES          1    7  0.2600E+08  0.3460E+01  0.3296E+01  0.2226E+06  0.6600E+06  0.0000E+00  0.4821E+03  0.7361E+04  0.8337E+03  0.3163E+02  0.4157E+04  0.4433E+00  0.8317E+01  0.1062E+04  0.1118E+00  0.1258E+03  0.1833E+04  0.1960E+00  0.1700E+02  0.2581E+02  0.2849E-02  0.4613E+02  0.4051E+03  0.4342E-01  0.1113E+02  0.1076E+03  0.1139E-01  0.0000E+00  0.1991E+03  0.1617E+01  0.0000E+00  0.0000E+00  0.0000E+00  0.0000E+00  0.0000E+00  0.0000E+00  0.0000E+00  0.0000E+00  0.0000E+00  0.0000E+00  0.0000E+00
RES          1    8  0.2594E+08  0.4998E+00  0.3302E+00  0.1896E+06  0.7072E+06  0.0000E+00  0.3490E+02  0.7372E+03  0.8347E+03  0.2079E+02  0.3135E+03  0.3423E+00  0.4103E+01  0.7365E+02  0.7852E-01  0.5002E+02  0.1400E+03  0.1530E+00  0.1534E+02  0.2503E+01  0.2874E-02  0.2653E+02  0.3165E+02  0.3476E-01  0.1059E+02  0.7795E+01  0.8375E-02  0.0000E+00  0.1515E+02  0.1757E+01  0.0000E+00  0.0000E+00  0.0000E+00  0.0000E+00  0.0000E+00  0.0000E+00  0.0000E+00  0.0000E+00  0.0000E+00  0.0000E+00  0.0000E+00
RES          1    9  0.2600E+08  0.1090E+02  0.1131E+02  0.1695E+07  0.5804E+06  0.0000E+00  0.5758E+04  0.2657E+05  0.8429E+03  0.9182E+05  0.4663E+05  0.4079E+00  0.2237E+05  0.1111E+05  0.8878E-01  0.4979E+04  0.4713E+04  0.1540E+00  0.1912E+03  0.1368E+03  0.3152E-02  0.5793E+04  0.3185E+04  0.3901E-01  0.3655E+04  0.1801E+04  0.1194E-01  0.2301E+04  0.1626E+04  0.8641E+00  0.0000E+00  0.0000E+00  0.0000E+00  0.0000E+00  0.0000E+00  0.0000E+00  0.0000E+00  0.0000E+00  0.0000E+00  0.0000E+00  0.0000E+00
RES          1   10  0.2600E+08  0.4693E+01  0.4633E+01  0.2346E+06  0.3945E+06  0.0000E+00  0.1005E+04  0.1178E+05  0.9490E+03  0.1612E+05  0.2421E+05  0.1816E+01  0.3937E+04  0.5711E+04  0.4205E+00  0.1469E+04  0.1605E+04  0.1274E+00  0.6660E+02  0.6274E+02  0.4904E-02  0.1255E+04  0.1603E+04  0.1220E+00  0.7735E+03  0.9379E+03  0.7010E-01  0.1903E+03  0.8093E+03  0.9890E+00  0.0000E+00  0.0000E+00  0.0000E+00  0.0000E+00  0.0000E+00  0.0000E+00  0.0000E+00  0.0000E+00  0.0000E+00  0.0000E+00  0.0000E+00
RES          1   11  0.2600E+08  0.2414E+01  0.2382E+01  0.1855E+06  0.2693E+06  0.0000E+00  0.2666E+03  0.5858E+04  0.9490E+03  0.6705E+03  0.7939E+04  0.1262E+01  0.1669E+03  0.1691E+04  0.2673E+00  0.4350E+03  0.6799E+03  0.1088E+00  0.9546E+01  0.2370E+02  0.3778E-02  0.1179E+03  0.5507E+03  0.8763E-01  0.5262E+02  0.2890E+03  0.4572E-01  0.0000E+00  0.2727E+03  0.1147E+01  0.0000E+00  0.0000E+00  0.0000E+00  0.0000E+00  0.0000E+00  0.0000E+00  0.0000E+00  0.0000E+00  0.0000E+00  0.0000E+00  0.0000E+00
RES          1   12  0.2600E+08  0.2135E+01  0.2250E+01  0.4390E+06  0.1301E+06  0.0000E+00  0.2329E+03  0.5720E+04  0.9490E+03  0.1859E+04  0.5590E+04  0.9356E+00  0.5356E+03  0.1090E+04  0.1827E+00  0.1129E+04  0.6028E+03  0.9958E-01  0.1153E+02  0.1771E+02  0.2957E-02  0.2324E+03  0.4004E+03  0.6684E-01  0.1203E+03  0.1907E+03  0.3192E-01  0.0000E+00  0.1949E+03  0.1282E+01  0.0000E+00  0.0000E+00  0.0000E+00  0.0000E+00  0.0000E+00  0.0000E+00  0.0000E+00  0.0000E+00  0.0000E+00  0.0000E+00  0.0000E+00
RES          1 2010  0.2600E+08  0.7178E+01  0.7219E+01  0.6192E+07  0.4923E+07  0.0000E+00  0.2136E+05  0.1944E+06  0.8626E+03  0.2101E+06  0.1784E+06  0.6832E+00  0.5707E+05  0.4590E+05  0.1650E+00  0.4276E+05  0.3796E+05  0.1546E+00  0.6292E+03  0.5166E+03  0.2583E-02  0.1501E+05  0.1263E+05  0.5236E-01  0.7639E+04  0.6076E+04  0.2252E-01  0.3704E+04  0.7421E+04  0.1282E+01  0.0000E+00  0.0000E+00  0.0000E+00  0.0000E+00  0.0000E+00  0.0000E+00  0.0000E+00  0.0000E+00  0.0000E+00  0.0000E+00  0.0000E+00
