1
    SWAT Dec 23 2016    VER 2016/Rev 664                                                                 0/ 0/   0      0: 0: 0

    General Input/Output section (file.cio):                                        
    1/28/2018 12:00:00 AM ARCGIS-SWAT interface AV                                  
                                                                                    
         Number of years in run:   17
         Area of watershed:     1900.882 km2
1
    SWAT Dec 23 2016    VER 2016/Rev 664                                            

    General Input/Output section (file.cio):                                        
    1/28/2018 12:00:00 AM ARCGIS-SWAT interface AV                                  
                                                                                    
Annual Summary for Watershed in year    1 of simulation

UNIT                                    PERCO    TILE                           WATER     SED     NO3     NO3     NO3     NO3        N       P       P
TIME     PREC    SURQ    LATQ     GWQ    LATE       Q     SW       ET     PET   YIELD   YIELD    SURQ    LATQ    PERC    CROP  ORGANIC SOLUBLE ORGANIC TILENO3
         (mm)    (mm)    (mm)    (mm)    (mm)    (mm)    (mm)    (mm)    (mm)    (mm)   (t/ha)  ------------------(kg nutrient/ha)-------------------- (kg/ha)
1
    SWAT Dec 23 2016    VER 2016/Rev 664                                            

    General Input/Output section (file.cio):                                        
    1/28/2018 12:00:00 AM ARCGIS-SWAT interface AV                                  
                                                                                    
Annual Summary for Watershed in year    2 of simulation

UNIT                                    PERCO    TILE                           WATER     SED     NO3     NO3     NO3     NO3        N       P       P
TIME     PREC    SURQ    LATQ     GWQ    LATE       Q     SW       ET     PET   YIELD   YIELD    SURQ    LATQ    PERC    CROP  ORGANIC SOLUBLE ORGANIC TILENO3
         (mm)    (mm)    (mm)    (mm)    (mm)    (mm)    (mm)    (mm)    (mm)    (mm)   (t/ha)  ------------------(kg nutrient/ha)-------------------- (kg/ha)
1
    SWAT Dec 23 2016    VER 2016/Rev 664                                            

    General Input/Output section (file.cio):                                        
    1/28/2018 12:00:00 AM ARCGIS-SWAT interface AV                                  
                                                                                    
Annual Summary for Watershed in year    3 of simulation

UNIT                                    PERCO    TILE                           WATER     SED     NO3     NO3     NO3     NO3        N       P       P
TIME     PREC    SURQ    LATQ     GWQ    LATE       Q     SW       ET     PET   YIELD   YIELD    SURQ    LATQ    PERC    CROP  ORGANIC SOLUBLE ORGANIC TILENO3
         (mm)    (mm)    (mm)    (mm)    (mm)    (mm)    (mm)    (mm)    (mm)    (mm)   (t/ha)  ------------------(kg nutrient/ha)-------------------- (kg/ha)
1
    SWAT Dec 23 2016    VER 2016/Rev 664                                            

    General Input/Output section (file.cio):                                        
    1/28/2018 12:00:00 AM ARCGIS-SWAT interface AV                                  
                                                                                    
Annual Summary for Watershed in year    4 of simulation

UNIT                                    PERCO    TILE                           WATER     SED     NO3     NO3     NO3     NO3        N       P       P
TIME     PREC    SURQ    LATQ     GWQ    LATE       Q     SW       ET     PET   YIELD   YIELD    SURQ    LATQ    PERC    CROP  ORGANIC SOLUBLE ORGANIC TILENO3
         (mm)    (mm)    (mm)    (mm)    (mm)    (mm)    (mm)    (mm)    (mm)    (mm)   (t/ha)  ------------------(kg nutrient/ha)-------------------- (kg/ha)
    1   69.67    4.44    1.58   50.34   39.16    0.00  228.60   22.42   32.54   60.56    0.16    0.01    0.01    0.88    0.00     0.20    0.00    0.03    0.00
    2   91.80   10.30    2.88   40.38   63.25    0.00  220.35   23.95   35.61   57.41    0.37    0.02    0.03    2.06    0.00     0.61    0.00    0.09    0.00
    3   93.15    6.63    1.68   51.77   29.48    0.00  224.32   51.33   93.13   63.65    0.35    0.03    0.01    1.09    0.00     0.39    0.00    0.05    0.00
    4  138.30   33.24    2.18   25.95   54.21    0.00  223.13   49.33   98.23   63.76    1.74    0.02    0.02    2.31    2.17     2.15    0.01    0.28    0.00
    5   68.77    3.69    1.44   33.16    7.40    0.00  214.79   65.16  125.48   41.99    0.10    0.43    0.02    0.29   15.12     0.16    0.00    0.02    0.00
    6  113.13    4.99    2.18   33.61   36.62    0.00  198.21   85.95  129.79   43.32    0.09    0.00    0.01    1.38   25.27     0.12    0.00    0.02    0.00
    7  142.15   12.93    1.83   20.84   13.58    0.00  205.97  105.90  158.35   37.87    0.12    0.01    0.00    0.07   31.37     0.19    0.00    0.03    0.00
    8   62.61    1.61    0.73   10.71    0.56    0.00  167.13   98.68  170.99   14.95    0.01    0.00    0.00    0.02   21.37     0.01    0.00    0.00    0.00
    9  104.53    5.36    1.35    3.45    6.21    0.00  202.06   56.56  109.34   11.62    0.04    0.00    0.00    0.05    0.66     0.06    0.00    0.01    0.00
   10   94.11   10.97    1.73    4.82   23.19    0.00  213.06   47.26   90.93   18.74    0.11    0.08    0.01    0.17    0.31     0.32    0.01    0.04    0.00
   11   84.63    5.73    1.80   17.56   35.53    0.00  223.85   30.67   46.12   25.67    0.06    0.07    0.02    0.62    0.22     0.13    0.00    0.02    0.00
   12   95.57   12.41    2.54   24.57   56.14    0.00  225.08   23.26   37.95   41.31    0.13    0.11    0.03    1.40    0.05     0.32    0.00    0.04    0.00

 1997 1158.41  112.31   21.90  317.16  365.33    0.00  225.08  660.47 1128.46  480.86    3.26    0.78    0.16   10.32   96.55     4.67    0.03    0.62    0.00
1
    SWAT Dec 23 2016    VER 2016/Rev 664                                            

    General Input/Output section (file.cio):                                        
    1/28/2018 12:00:00 AM ARCGIS-SWAT interface AV                                  
                                                                                    
Annual Summary for Watershed in year    5 of simulation

UNIT                                    PERCO    TILE                           WATER     SED     NO3     NO3     NO3     NO3        N       P       P
TIME     PREC    SURQ    LATQ     GWQ    LATE       Q     SW       ET     PET   YIELD   YIELD    SURQ    LATQ    PERC    CROP  ORGANIC SOLUBLE ORGANIC TILENO3
         (mm)    (mm)    (mm)    (mm)    (mm)    (mm)    (mm)    (mm)    (mm)    (mm)   (t/ha)  ------------------(kg nutrient/ha)-------------------- (kg/ha)
    1  147.70   19.73    4.12   41.83  100.31    0.00  225.55   23.04   33.32   67.22    0.68    0.05    0.04    3.81    0.00     1.03    0.01    0.13    0.00
    2  180.70   43.19    4.28   70.13  104.62    0.00  228.00   26.00   34.55  119.15    2.37    0.03    0.03    4.73    0.00     2.56    0.01    0.33    0.00
    3  119.85   10.30    3.75   91.03   83.12    0.00  211.22   39.81   72.07  108.61    0.39    0.02    0.02    3.73    0.00     0.53    0.00    0.07    0.00
    4  101.34    7.32    1.81   78.05   30.75    0.00  219.01   53.67   85.82   90.39    0.31    0.03    0.01    1.15    4.25     0.34    0.00    0.04    0.00
    5  141.20   11.85    2.77   60.02   54.22    0.00  224.96   66.24   92.35   77.80    0.33    0.28    0.03    1.71   22.49     0.40    0.00    0.05    0.00
    6   87.55    3.17    1.29   46.61   12.28    0.00  198.35   97.59  136.23   54.01    0.04    0.00    0.00    0.34   31.00     0.06    0.00    0.01    0.00
    7   53.73    1.34    0.47   24.27    0.07    0.00  154.72   95.51  159.66   28.62    0.01    0.00    0.00    0.00   30.03     0.01    0.00    0.00    0.00
    8   97.52    7.99    1.07    2.48    3.22    0.00  167.04   72.85  159.83   13.51    0.06    0.01    0.00    0.02    7.14     0.11    0.00    0.01    0.00
    9   40.72    1.01    0.62    2.06    1.44    0.00  144.18   60.55  151.75    5.19    0.01    0.01    0.00    0.01    0.39     0.01    0.00    0.00    0.00
   10   29.40    0.75    0.34    1.64    0.38    0.00  137.39   34.78   97.07    3.92    0.01    0.02    0.01    0.00    0.16     0.02    0.00    0.00    0.00
   11   62.59    1.32    0.71    0.70    1.84    0.00  163.09   32.99   64.67    3.59    0.01    0.06    0.01    0.02    0.04     0.03    0.00    0.00    0.00
   12  115.47    9.13    2.39    1.79   31.19    0.00  216.66   18.84   40.50   13.95    0.12    0.03    0.04    0.87    0.02     0.29    0.00    0.04    0.00

 1998 1177.76  117.10   23.64  420.60  423.44    0.00  216.66  621.88 1127.80  585.94    4.34    0.54    0.19   16.41   95.52     5.38    0.03    0.70    0.00
1
    SWAT Dec 23 2016    VER 2016/Rev 664                                            

    General Input/Output section (file.cio):                                        
    1/28/2018 12:00:00 AM ARCGIS-SWAT interface AV                                  
                                                                                    
Annual Summary for Watershed in year    6 of simulation

UNIT                                    PERCO    TILE                           WATER     SED     NO3     NO3     NO3     NO3        N       P       P
TIME     PREC    SURQ    LATQ     GWQ    LATE       Q     SW       ET     PET   YIELD   YIELD    SURQ    LATQ    PERC    CROP  ORGANIC SOLUBLE ORGANIC TILENO3
         (mm)    (mm)    (mm)    (mm)    (mm)    (mm)    (mm)    (mm)    (mm)    (mm)   (t/ha)  ------------------(kg nutrient/ha)-------------------- (kg/ha)
    1  107.61   17.03    2.89   19.35   56.95    0.00  215.54   32.12   54.66   40.14    0.80    0.03    0.03    2.48    0.00     1.05    0.00    0.13    0.00
    2   39.27    1.26    0.39   27.61    2.85    0.00  224.14   26.10   49.42   30.09    0.08    0.01    0.00    0.14    0.00     0.07    0.00    0.01    0.00
    3   76.54    5.03    1.62   23.41   29.11    0.00  215.03   49.95   94.49   31.34    0.22    0.02    0.02    1.53    0.00     0.32    0.00    0.04    0.00
    4  144.89   20.45    2.29   25.25   57.26    0.00  227.69   51.54   96.23   48.35    0.88    0.03    0.02    3.19    5.90     1.22    0.00    0.16    0.00
    5   84.13    3.58    2.41   38.71   32.36    0.00  202.09   72.12  119.06   46.92    0.10    0.26    0.03    1.87   24.48     0.19    0.00    0.02    0.00
    6  114.32    5.61    1.30   32.06    7.82    0.00  215.57   85.79  143.20   40.30    0.05    0.00    0.00    0.01   31.24     0.10    0.00    0.01    0.00
    7   58.67    2.54    1.12   16.10    5.65    0.00  134.88  130.39  216.36   21.31    0.02    0.00    0.00    0.05   28.62     0.04    0.00    0.01    0.00
    8   82.19    2.59    0.81    3.96    0.24    0.00  128.11   85.27  192.46    8.51    0.01    0.01    0.00    0.02    9.35     0.02    0.00    0.00    0.00
    9  472.12  179.76    7.67   15.77  130.59    0.00  226.07   55.56   87.64  203.97    1.24    0.36    0.02    1.29    0.37     5.45    0.05    0.72    0.00
   10   74.35   12.68    2.03   54.53   28.02    0.00  207.41   50.90   86.09   71.25    0.12    0.06    0.02    0.54    0.27     0.33    0.01    0.04    0.00
   11   30.17    0.53    0.28   44.17    0.05    0.00  203.86   32.89   72.14   46.82    0.00    0.01    0.00    0.00    0.16     0.01    0.00    0.00    0.00
   12   62.86    4.54    1.20   25.28   19.08    0.00  217.30   24.59   50.32   32.70    0.05    0.04    0.02    0.55    0.07     0.10    0.00    0.01    0.00

 1999 1347.13  255.59   24.00  326.19  369.99    0.00  217.30  697.23 1262.06  621.69    3.56    0.83    0.15   11.65  100.47     8.90    0.07    1.16    0.00
1
    SWAT Dec 23 2016    VER 2016/Rev 664                                            

    General Input/Output section (file.cio):                                        
    1/28/2018 12:00:00 AM ARCGIS-SWAT interface AV                                  
                                                                                    
Annual Summary for Watershed in year    7 of simulation

UNIT                                    PERCO    TILE                           WATER     SED     NO3     NO3     NO3     NO3        N       P       P
TIME     PREC    SURQ    LATQ     GWQ    LATE       Q     SW       ET     PET   YIELD   YIELD    SURQ    LATQ    PERC    CROP  ORGANIC SOLUBLE ORGANIC TILENO3
         (mm)    (mm)    (mm)    (mm)    (mm)    (mm)    (mm)    (mm)    (mm)    (mm)   (t/ha)  ------------------(kg nutrient/ha)-------------------- (kg/ha)
    1  174.39    7.39    1.75   24.14   37.93    0.00  226.33   19.04   33.47   34.82    0.29    0.02    0.02    1.05    0.00     0.37    0.00    0.05    0.00
    2   49.22   24.29    3.71   44.02   99.88    0.00  217.00   29.90   52.67   73.75    1.05    0.03    0.04    4.26    0.00     1.39    0.01    0.18    0.00
    3  100.17    6.13    1.99   52.54   40.84    0.00  222.82   45.27  102.70   62.80    0.22    0.02    0.01    1.95    0.00     0.28    0.00    0.04    0.00
    4  116.14   10.12    2.48   45.36   50.57    0.00  221.95   53.80   90.68   60.08    0.48    0.03    0.02    2.58    2.81     0.52    0.00    0.07    0.00
    5   47.29    1.84    0.61   42.76    1.05    0.00  205.55   60.36  156.09   47.45    0.04    0.26    0.01    0.04   27.49     0.05    0.00    0.01    0.00
    6   81.26    2.62    0.99   19.70    6.04    0.00  187.63   89.50  140.50   25.17    0.03    0.00    0.00    0.18   28.35     0.05    0.00    0.01    0.00
    7  100.68   11.87    1.13    3.95    3.10    0.00  185.81   86.28  146.11   18.52    0.11    0.00    0.00    0.01   33.82     0.19    0.00    0.02    0.00
    8   73.80    1.94    0.95    3.05    2.67    0.00  169.22   84.78  181.31    7.15    0.01    0.00    0.00    0.02    9.91     0.02    0.00    0.00    0.00
    9  136.65   13.54    2.77    4.41   24.51    0.00  205.52   59.64  108.30   21.74    0.14    0.09    0.01    0.15    0.39     0.44    0.00    0.06    0.00
   10    4.08    0.01    0.15    9.98    0.05    0.00  167.01   42.52  122.78   11.06    0.00    0.00    0.00    0.00    0.27     0.00    0.00    0.00    0.00
   11   83.59    8.18    1.16    6.19    9.22    0.00  204.81   27.16   53.92   16.27    0.10    0.10    0.02    0.28    0.15     0.26    0.00    0.03    0.00
   12   49.48    1.50    1.15    8.62   17.86    0.00  213.99   19.85   30.16   11.99    0.02    0.01    0.02    0.60    0.04     0.04    0.00    0.01    0.00

 2000 1016.76   89.44   18.84  264.73  293.72    0.00  213.99  618.10 1218.69  390.81    2.48    0.56    0.16   11.12  103.22     3.61    0.02    0.47    0.00
1
    SWAT Dec 23 2016    VER 2016/Rev 664                                            

    General Input/Output section (file.cio):                                        
    1/28/2018 12:00:00 AM ARCGIS-SWAT interface AV                                  
                                                                                    
Annual Summary for Watershed in year    8 of simulation

UNIT                                    PERCO    TILE                           WATER     SED     NO3     NO3     NO3     NO3        N       P       P
TIME     PREC    SURQ    LATQ     GWQ    LATE       Q     SW       ET     PET   YIELD   YIELD    SURQ    LATQ    PERC    CROP  ORGANIC SOLUBLE ORGANIC TILENO3
         (mm)    (mm)    (mm)    (mm)    (mm)    (mm)    (mm)    (mm)    (mm)    (mm)   (t/ha)  ------------------(kg nutrient/ha)-------------------- (kg/ha)
    1   47.84    3.57    0.84   11.13   14.83    0.00  219.24   23.31   41.24   16.22    0.12    0.02    0.01    0.41    0.00     0.17    0.00    0.02    0.00
    2   60.42    2.03    1.16   12.08   21.20    0.00  221.64   33.61   56.49   15.90    0.08    0.01    0.02    0.73    0.00     0.10    0.00    0.01    0.00
    3  170.98   28.12    3.48   23.45   85.92    0.00  227.98   46.60   78.87   55.47    1.22    0.05    0.04    4.16    0.00     1.70    0.01    0.22    0.00
    4   54.85    3.02    1.55   44.42   18.23    0.00  207.51   53.10  137.97   50.76    0.14    0.05    0.02    1.15    3.98     0.20    0.00    0.03    0.00
    5  103.33    7.71    1.52   33.69   21.10    0.00  215.42   64.93  133.75   44.35    0.16    0.25    0.02    1.09   28.09     0.27    0.00    0.03    0.00
    6  116.74   11.27    2.21   29.88   32.31    0.00  189.85   96.68  147.33   44.82    0.18    0.05    0.01    1.00   31.20     0.34    0.00    0.04    0.00
    7   95.36    2.98    0.98   20.88    1.54    0.00  182.19   97.39  158.24   26.26    0.02    0.00    0.00    0.04   33.29     0.03    0.00    0.00    0.00
    8   72.84    1.93    0.97    4.41    1.11    0.00  157.71   93.46  168.67    8.53    0.01    0.00    0.00    0.03   12.20     0.02    0.00    0.00    0.00
    9   84.72    4.13    1.06    1.60    2.43    0.00  176.69   58.08  124.36    7.71    0.03    0.04    0.01    0.05    0.37     0.11    0.00    0.01    0.00
   10   21.40    0.46    0.27    1.36    0.00    0.00  148.13   49.30  121.57    2.84    0.00    0.04    0.00    0.00    0.27     0.01    0.00    0.00    0.00
   11   33.96    1.99    0.30    0.29    0.10    0.00  152.02   27.66   87.49    3.13    0.02    0.19    0.00    0.00    0.12     0.05    0.00    0.01    0.00
   12   29.21    0.28    0.32    0.13    0.18    0.00  155.80   24.67   60.74    1.16    0.00    0.01    0.00    0.00    0.03     0.00    0.00    0.00    0.00

 2001  891.64   67.48   14.64  183.32  198.95    0.00  155.80  668.77 1316.71  277.15    1.97    0.71    0.12    8.67  109.54     3.00    0.02    0.38    0.00
1
    SWAT Dec 23 2016    VER 2016/Rev 664                                            

    General Input/Output section (file.cio):                                        
    1/28/2018 12:00:00 AM ARCGIS-SWAT interface AV                                  
                                                                                    
Annual Summary for Watershed in year    9 of simulation

UNIT                                    PERCO    TILE                           WATER     SED     NO3     NO3     NO3     NO3        N       P       P
TIME     PREC    SURQ    LATQ     GWQ    LATE       Q     SW       ET     PET   YIELD   YIELD    SURQ    LATQ    PERC    CROP  ORGANIC SOLUBLE ORGANIC TILENO3
         (mm)    (mm)    (mm)    (mm)    (mm)    (mm)    (mm)    (mm)    (mm)    (mm)   (t/ha)  ------------------(kg nutrient/ha)-------------------- (kg/ha)
    1  168.06   20.33    3.95    4.14   62.41    0.00  218.36   18.67   28.08   28.80    0.99    0.04    0.07    2.57    0.00     1.35    0.01    0.17    0.00
    2   43.32    3.66    1.12   24.29   20.89    0.00  210.78   25.37   50.26   29.76    0.18    0.00    0.01    1.20    0.00     0.22    0.00    0.03    0.00
    3  177.50   30.74    3.03   34.64   80.23    0.00  231.32   42.03   67.79   64.83    1.52    0.04    0.03    5.16    0.00     1.79    0.01    0.23    0.00
    4   75.41    3.91    2.30   47.59   29.87    0.00  212.65   58.90  106.46   59.91    0.14    0.06    0.02    2.07    9.43     0.54    0.00    0.07    0.00
    5   96.61   14.41    1.62   44.04   24.36    0.00  184.50   84.37  153.90   61.79    0.43    0.13    0.02    1.23   30.67     0.71    0.00    0.09    0.00
    6   30.99    0.28    0.26   25.36    0.00    0.00  122.49   92.47  171.82   27.45    0.00    0.00    0.00    0.00   30.74     0.00    0.00    0.00    0.00
    7   56.43    0.74    0.56    4.22    0.00    0.00   81.76   95.87  208.15    6.83    0.00    0.00    0.00    0.00   19.51     0.00    0.00    0.00    0.00
    8  157.56    7.40    1.91    0.00    0.82    0.00  175.24   53.00  192.37    9.91    0.05    0.04    0.01    0.05    0.91     0.23    0.00    0.03    0.00
    9   81.37    7.48    2.24    0.98    7.59    0.00  176.20   64.02  130.22   11.87    0.08    0.24    0.02    0.12    0.32     0.28    0.00    0.04    0.00
   10  132.36   16.11    2.37    6.41   38.11    0.00  215.59   36.17   71.54   25.57    0.20    0.18    0.03    0.66    0.09     0.54    0.01    0.07    0.00
   11   95.98    9.12    2.63   22.08   52.22    0.00  213.61   34.21   59.00   34.70    0.11    0.02    0.03    2.27    0.01     0.33    0.00    0.04    0.00
   12  106.94   10.60    2.78   39.74   63.83    0.00  220.02   23.29   38.54   54.40    0.20    0.03    0.03    3.34    0.05     0.43    0.00    0.06    0.00

 2002 1222.54  124.78   24.78  253.49  380.33    0.00  220.02  628.37 1278.14  415.82    3.91    0.78    0.27   18.67   91.73     6.43    0.05    0.82    0.00
1
    SWAT Dec 23 2016    VER 2016/Rev 664                                            

    General Input/Output section (file.cio):                                        
    1/28/2018 12:00:00 AM ARCGIS-SWAT interface AV                                  
                                                                                    
Annual Summary for Watershed in year   10 of simulation

UNIT                                    PERCO    TILE                           WATER     SED     NO3     NO3     NO3     NO3        N       P       P
TIME     PREC    SURQ    LATQ     GWQ    LATE       Q     SW       ET     PET   YIELD   YIELD    SURQ    LATQ    PERC    CROP  ORGANIC SOLUBLE ORGANIC TILENO3
         (mm)    (mm)    (mm)    (mm)    (mm)    (mm)    (mm)    (mm)    (mm)    (mm)   (t/ha)  ------------------(kg nutrient/ha)-------------------- (kg/ha)
    1   65.11    6.29    1.17   47.59   28.67    0.00  227.25   21.61   33.69   56.61    0.19    0.02    0.01    1.52    0.00     0.32    0.00    0.04    0.00
    2  112.84    7.39    3.06   37.86   78.35    0.00  226.87   24.25   31.99   49.83    0.37    0.01    0.03    4.51    0.00     0.52    0.00    0.07    0.00
    3  163.62   20.26    4.34   63.85  100.91    0.00  225.92   39.12   60.82   90.67    1.28    0.01    0.03    5.03    0.00     1.67    0.00    0.22    0.00
    4  162.95   21.84    3.90   76.29   83.02    0.00  226.98   53.18  100.95  104.89    1.16    0.12    0.02    3.31    0.55     1.78    0.01    0.23    0.00
    5  186.30   28.11    4.07   73.90   91.61    0.00  225.82   63.50   95.55  108.86    0.81    0.27    0.04    2.64   20.53     1.32    0.00    0.17    0.00
    6  165.70   16.72    4.13   83.25   81.55    0.00  206.24   83.18  116.56  107.79    0.35    0.02    0.01    1.44   32.81     0.59    0.00    0.08    0.00
    7  169.57   19.32    2.79   80.64   39.62    0.00  223.16   90.88  113.71  106.41    0.24    0.03    0.00    0.10   30.41     0.39    0.00    0.05    0.00
    8  102.13    5.93    2.31   63.18   44.13    0.00  187.92   85.15  133.30   74.98    0.07    0.00    0.00    0.24   16.01     0.10    0.00    0.01    0.00
    9  142.61   47.53    1.79   40.91   22.40    0.00  207.91   50.90  100.78   93.31    0.46    0.02    0.00    0.06    0.38     0.88    0.01    0.12    0.00
   10  120.49   23.76    1.69   23.51   35.48    0.00  220.42   46.62   98.93   51.12    0.22    0.08    0.02    0.35    0.26     0.74    0.01    0.10    0.00
   11   61.98   12.93    1.42   24.67   15.47    0.00  215.38   37.66   62.90   41.84    0.10    0.17    0.01    0.20    0.20     0.30    0.01    0.04    0.00
   12   76.15    7.16    1.56   27.54   30.41    0.00  223.34   29.04   44.32   38.39    0.08    0.06    0.02    0.59    0.08     0.18    0.00    0.02    0.00

 2003 1529.46  217.22   32.24  643.17  651.63    0.00  223.34  625.07  993.51  924.70    5.33    0.81    0.19   20.00  101.23     8.78    0.05    1.14    0.00
1
    SWAT Dec 23 2016    VER 2016/Rev 664                                            

    General Input/Output section (file.cio):                                        
    1/28/2018 12:00:00 AM ARCGIS-SWAT interface AV                                  
                                                                                    
Annual Summary for Watershed in year   11 of simulation

UNIT                                    PERCO    TILE                           WATER     SED     NO3     NO3     NO3     NO3        N       P       P
TIME     PREC    SURQ    LATQ     GWQ    LATE       Q     SW       ET     PET   YIELD   YIELD    SURQ    LATQ    PERC    CROP  ORGANIC SOLUBLE ORGANIC TILENO3
         (mm)    (mm)    (mm)    (mm)    (mm)    (mm)    (mm)    (mm)    (mm)    (mm)   (t/ha)  ------------------(kg nutrient/ha)-------------------- (kg/ha)
    1   60.65    3.95    1.21   26.23   29.79    0.00  225.40   23.43   41.72   33.25    0.14    0.05    0.01    0.75    0.00     0.19    0.00    0.02    0.00
    2  115.84   10.37    3.18   29.84   75.49    0.00  222.08   30.15   43.62   45.20    0.48    0.03    0.03    3.04    0.00     0.56    0.00    0.07    0.00
    3   48.00    1.41    0.90   43.81   10.44    0.00  218.33   39.20   78.37   48.23    0.03    0.01    0.01    0.48    0.00     0.06    0.00    0.01    0.00
    4   94.29    8.47    1.77   33.04   31.60    0.00  215.16   55.57  125.07   45.16    0.40    0.07    0.02    1.61    2.74     0.55    0.00    0.07    0.00
    5   90.51   11.54    1.86   36.88   34.71    0.00  192.14   65.47  149.36   52.25    0.55    0.18    0.02    1.76   30.69     0.70    0.00    0.09    0.00
    6   69.87    2.13    0.59   16.74    0.09    0.00  183.82   75.37  121.18   21.19    0.03    0.00    0.00    0.00   29.34     0.05    0.00    0.01    0.00
    7   93.08    1.93    0.84    3.14    2.65    0.00  187.46   83.75  131.63    7.24    0.01    0.00    0.00    0.00   25.19     0.01    0.00    0.00    0.00
    8  300.68   84.76    5.62   18.40   94.48    0.00  218.00   85.30  141.35  109.86    0.72    0.03    0.01    0.67    5.90     1.66    0.01    0.21    0.00
    9  135.81   15.94    3.12   46.20   57.50    0.00  215.15   62.28  104.56   67.32    0.16    0.15    0.01    0.66    0.38     0.44    0.00    0.05    0.00
   10   64.93    7.70    1.02   46.50   10.87    0.00  212.74   47.86   84.42   57.21    0.10    0.17    0.01    0.15    0.22     0.26    0.00    0.03    0.00
   11   67.06    2.95    1.07   27.61   19.02    0.00  221.21   35.40   69.33   33.36    0.03    0.04    0.01    0.31    0.06     0.07    0.00    0.01    0.00
   12   89.31   15.58    2.11   26.48   47.88    0.00  222.76   22.18   36.58   45.82    0.20    0.02    0.02    1.12    0.06     0.44    0.01    0.06    0.00

 2004 1230.03  166.71   23.30  354.87  414.51    0.00  222.76  625.96 1127.19  566.11    2.85    0.75    0.17   10.56   94.58     4.99    0.04    0.64    0.00
1
    SWAT Dec 23 2016    VER 2016/Rev 664                                            

    General Input/Output section (file.cio):                                        
    1/28/2018 12:00:00 AM ARCGIS-SWAT interface AV                                  
                                                                                    
Annual Summary for Watershed in year   12 of simulation

UNIT                                    PERCO    TILE                           WATER     SED     NO3     NO3     NO3     NO3        N       P       P
TIME     PREC    SURQ    LATQ     GWQ    LATE       Q     SW       ET     PET   YIELD   YIELD    SURQ    LATQ    PERC    CROP  ORGANIC SOLUBLE ORGANIC TILENO3
         (mm)    (mm)    (mm)    (mm)    (mm)    (mm)    (mm)    (mm)    (mm)    (mm)   (t/ha)  ------------------(kg nutrient/ha)-------------------- (kg/ha)
    1   88.79   21.38    1.80   33.35   42.40    0.00  227.87   18.11   31.51   58.20    1.27    0.09    0.02    1.30    0.00     1.52    0.01    0.19    0.00
    2   70.28    7.94    1.20   32.89   32.72    0.00  231.15   24.73   37.81   42.11    0.33    0.01    0.01    1.46    0.00     0.34    0.00    0.04    0.00
    3  149.11   21.23    4.00   40.03   89.01    0.00  221.79   44.51   63.79   68.65    1.00    0.02    0.04    4.62    0.00     1.31    0.01    0.16    0.00
    4  107.05   16.63    2.52   62.47   47.95    0.00  213.38   48.60  102.23   83.96    0.99    0.01    0.02    2.57    2.70     1.04    0.00    0.13    0.00
    5  108.12   16.29    1.96   57.75   33.15    0.00  205.81   64.33  111.30   78.54    0.82    0.33    0.02    1.47   22.11     0.96    0.00    0.12    0.00
    6  123.63    7.13    1.89   41.42   26.91    0.00  203.72   89.67  132.75   52.66    0.14    0.01    0.01    1.01   31.87     0.19    0.00    0.02    0.00
    7   98.23    2.17    1.09   19.31    3.11    0.00  176.48  119.10  176.30   24.66    0.01    0.00    0.00    0.05   28.16     0.02    0.00    0.00    0.00
    8   41.13    0.54    0.51    3.43    0.05    0.00  128.57   88.09  203.70    6.33    0.00    0.00    0.00    0.00    9.99     0.00    0.00    0.00    0.00
    9   29.64    0.67    0.27    0.38    0.01    0.00  105.56   51.72  156.34    2.59    0.00    0.02    0.00    0.00    0.31     0.02    0.00    0.00    0.00
   10  110.09    8.91    1.60    0.77    3.49    0.00  157.80   43.83   92.61   12.28    0.07    0.09    0.02    0.06    0.12     0.24    0.01    0.03    0.00
   11  111.20   15.99    1.74    1.72   14.71    0.00  208.68   27.48   64.39   19.89    0.17    0.02    0.02    0.31    0.03     0.42    0.01    0.05    0.00
   12  128.15   19.65    3.56   17.64   67.67    0.00  222.60   23.63   36.37   42.01    0.25    0.04    0.04    2.86    0.06     0.58    0.01    0.07    0.00

 2005 1165.42  138.52   22.14  311.15  361.17    0.00  222.60  643.80 1209.09  491.86    5.07    0.64    0.19   15.71   95.35     6.61    0.04    0.84    0.00
1
    SWAT Dec 23 2016    VER 2016/Rev 664                                            

    General Input/Output section (file.cio):                                        
    1/28/2018 12:00:00 AM ARCGIS-SWAT interface AV                                  
                                                                                    
Annual Summary for Watershed in year   13 of simulation

UNIT                                    PERCO    TILE                           WATER     SED     NO3     NO3     NO3     NO3        N       P       P
TIME     PREC    SURQ    LATQ     GWQ    LATE       Q     SW       ET     PET   YIELD   YIELD    SURQ    LATQ    PERC    CROP  ORGANIC SOLUBLE ORGANIC TILENO3
         (mm)    (mm)    (mm)    (mm)    (mm)    (mm)    (mm)    (mm)    (mm)    (mm)   (t/ha)  ------------------(kg nutrient/ha)-------------------- (kg/ha)
    1   88.28    3.78    2.16   34.66   52.44    0.00  227.30   25.04   33.32   41.59    0.18    0.01    0.02    2.88    0.00     0.21    0.00    0.03    0.00
    2   60.00    2.13    1.66   38.38   34.02    0.00  221.90   27.78   40.45   43.73    0.09    0.01    0.01    1.99    0.00     0.12    0.00    0.02    0.00
    3   50.24    3.35    0.86   36.41   10.81    0.00  211.92   45.27   98.28   42.21    0.16    0.01    0.01    0.58    0.00     0.19    0.00    0.02    0.00
    4  102.15   11.31    1.55   25.30   23.37    0.00  217.38   60.33  129.55   39.58    0.50    0.02    0.01    1.03    9.39     0.65    0.00    0.08    0.00
    5   64.82    2.44    1.02   21.66   10.46    0.00  196.13   72.28  124.26   26.55    0.08    0.19    0.01    0.55   28.84     0.11    0.00    0.01    0.00
    6  203.77   40.51    3.37   18.08   56.36    0.00  214.41   85.05  125.71   63.21    0.51    0.03    0.00    0.63   31.57     0.98    0.01    0.13    0.00
    7   39.84    0.90    0.55   27.09    0.22    0.00  140.85  111.93  197.89   29.97    0.01    0.00    0.00    0.00   32.83     0.01    0.00    0.00    0.00
    8   62.69    1.99    0.37   11.38    0.12    0.00  137.87   62.96  167.02   14.54    0.01    0.00    0.00    0.00    4.95     0.02    0.00    0.00    0.00
    9  154.44   20.99    2.84    5.58   11.60    0.00  194.67   62.40  101.80   30.87    0.20    0.10    0.01    0.10    0.36     0.50    0.00    0.06    0.00
   10   76.91    3.09    1.18    5.49   11.40    0.00  206.04   49.77   89.20   10.62    0.03    0.05    0.02    0.12    0.18     0.09    0.00    0.01    0.00
   11  175.14   51.20    3.70   13.87   75.69    0.00  218.74   31.86   57.53   69.61    0.58    0.15    0.04    2.21    0.04     1.52    0.02    0.19    0.00
   12   84.98   14.29    1.96   35.37   42.03    0.00  220.50   24.93   51.23   52.83    0.13    0.07    0.02    1.75    0.06     0.35    0.00    0.04    0.00

 2006 1163.24  155.98   21.22  273.26  328.53    0.00  220.50  659.60 1216.24  465.31    2.49    0.62    0.16   11.87  108.22     4.75    0.04    0.60    0.00
1
    SWAT Dec 23 2016    VER 2016/Rev 664                                            

    General Input/Output section (file.cio):                                        
    1/28/2018 12:00:00 AM ARCGIS-SWAT interface AV                                  
                                                                                    
Annual Summary for Watershed in year   14 of simulation

UNIT                                    PERCO    TILE                           WATER     SED     NO3     NO3     NO3     NO3        N       P       P
TIME     PREC    SURQ    LATQ     GWQ    LATE       Q     SW       ET     PET   YIELD   YIELD    SURQ    LATQ    PERC    CROP  ORGANIC SOLUBLE ORGANIC TILENO3
         (mm)    (mm)    (mm)    (mm)    (mm)    (mm)    (mm)    (mm)    (mm)    (mm)   (t/ha)  ------------------(kg nutrient/ha)-------------------- (kg/ha)
    1   83.69    3.61    2.18   46.23   46.88    0.00  222.02   29.58   45.67   53.59    0.12    0.01    0.02    2.47    0.00     0.17    0.00    0.02    0.00
    2   44.18    3.77    0.87   40.73   15.68    0.00  218.63   27.30   50.18   46.98    0.18    0.01    0.01    0.86    0.00     0.23    0.00    0.03    0.00
    3   48.79    5.25    0.82   30.09   11.79    0.00  206.95   42.62  113.23   37.85    0.31    0.02    0.01    0.51    0.00     0.38    0.00    0.05    0.00
    4   88.66   12.54    1.37   17.87   20.39    0.00  214.73   46.53  110.12   33.20    0.72    0.05    0.01    1.00    3.88     0.90    0.00    0.12    0.00
    5   80.27    5.61    1.60   19.98   27.85    0.00  184.92   75.08  150.04   28.59    0.18    0.32    0.02    1.49   30.03     0.27    0.00    0.03    0.00
    6  106.56   14.72    0.98   15.97    3.30    0.00  193.35   79.05  131.25   32.92    0.29    0.10    0.00    0.00   30.40     0.50    0.00    0.06    0.00
    7   35.93    0.29    0.37    2.86    0.00    0.00  124.14  104.53  187.16    4.62    0.00    0.00    0.00    0.00   34.37     0.00    0.00    0.00    0.00
    8   13.93    0.03    0.14    0.15    0.00    0.00   68.28   69.67  209.72    1.16    0.00    0.00    0.00    0.00    4.78     0.00    0.00    0.00    0.00
    9   37.43    0.58    0.37    0.00    0.00    0.00   62.45   42.30  166.67    1.57    0.00    0.01    0.00    0.00    0.24     0.01    0.00    0.00    0.00
   10  113.35    4.56    1.68    0.00    1.03    0.00  138.38   29.95  102.71    6.72    0.04    0.04    0.03    0.03    0.08     0.12    0.00    0.01    0.00
   11   25.49    0.26    0.43    0.22    0.07    0.00  136.50   26.78   72.00    1.28    0.00    0.01    0.01    0.00    0.01     0.00    0.00    0.00    0.00
   12  106.51    9.10    1.62    0.37   10.98    0.00  197.08   23.59   41.70   10.78    0.16    0.01    0.02    0.52    0.13     0.34    0.00    0.04    0.00

 2007  784.78   60.32   12.42  174.48  137.97    0.00  197.08  596.97 1380.46  259.27    2.00    0.60    0.14    6.89  103.91     2.92    0.02    0.38    0.00
1
    SWAT Dec 23 2016    VER 2016/Rev 664                                            

    General Input/Output section (file.cio):                                        
    1/28/2018 12:00:00 AM ARCGIS-SWAT interface AV                                  
                                                                                    
Annual Summary for Watershed in year   15 of simulation

UNIT                                    PERCO    TILE                           WATER     SED     NO3     NO3     NO3     NO3        N       P       P
TIME     PREC    SURQ    LATQ     GWQ    LATE       Q     SW       ET     PET   YIELD   YIELD    SURQ    LATQ    PERC    CROP  ORGANIC SOLUBLE ORGANIC TILENO3
         (mm)    (mm)    (mm)    (mm)    (mm)    (mm)    (mm)    (mm)    (mm)    (mm)   (t/ha)  ------------------(kg nutrient/ha)-------------------- (kg/ha)
    1   56.66    2.41    1.80    3.96   17.05    0.00  207.13   25.95   46.50    9.04    0.15    0.01    0.02    0.84    0.00     0.21    0.00    0.03    0.00
    2   92.69    8.85    2.08   11.68   40.22    0.00  217.87   30.76   49.02   23.03    0.46    0.02    0.02    2.58    0.00     0.61    0.00    0.08    0.00
    3  114.72   10.16    2.07   25.80   47.03    0.00  227.90   45.05   79.81   37.85    0.61    0.02    0.02    3.51    0.00     0.75    0.00    0.10    0.00
    4  180.87   42.28    4.06   42.78   91.84    0.00  220.85   49.81   77.53   91.08    2.19    0.01    0.03    6.17    6.38     3.25    0.01    0.43    0.00
    5   64.04    3.13    0.99   50.68    2.70    0.00  208.27   70.14  122.76   56.62    0.08    0.15    0.01    0.11   28.22     0.13    0.00    0.02    0.00
    6   39.02    0.86    0.38   30.05    0.00    0.00  148.26   97.83  183.51   32.88    0.01    0.00    0.00    0.00   29.18     0.01    0.00    0.00    0.00
    7   58.88    1.64    0.56    7.97    0.16    0.00  116.16   88.65  162.68   11.50    0.01    0.00    0.00    0.00   25.70     0.02    0.00    0.00    0.00
    8   90.27    3.69    0.96    0.28    0.73    0.00  139.69   61.17  159.15    5.96    0.02    0.00    0.00    0.01    2.95     0.05    0.00    0.01    0.00
    9  145.91   14.02    2.50    1.64   12.17    0.00  195.98   60.83  113.31   18.92    0.13    0.08    0.02    0.17    0.35     0.45    0.01    0.06    0.00
   10   34.34    0.31    0.64    5.19    1.76    0.00  182.18   45.71  104.74    6.87    0.00    0.01    0.01    0.03    0.13     0.00    0.00    0.00    0.00
   11  169.13   35.59    3.03    9.21   54.82    0.00  225.68   31.74   59.39   47.70    0.40    0.08    0.03    1.48    0.03     1.10    0.02    0.14    0.00
   12   77.90    4.92    2.46   27.25   53.91    0.00  222.81   19.73   26.05   36.30    0.07    0.01    0.03    2.77    0.14     0.17    0.00    0.02    0.00

 2008 1124.42  127.87   21.51  216.49  322.39    0.00  222.81  627.37 1184.46  377.75    4.13    0.39    0.20   17.66   93.08     6.76    0.04    0.89    0.00
1
    SWAT Dec 23 2016    VER 2016/Rev 664                                            

    General Input/Output section (file.cio):                                        
    1/28/2018 12:00:00 AM ARCGIS-SWAT interface AV                                  
                                                                                    
Annual Summary for Watershed in year   16 of simulation

UNIT                                    PERCO    TILE                           WATER     SED     NO3     NO3     NO3     NO3        N       P       P
TIME     PREC    SURQ    LATQ     GWQ    LATE       Q     SW       ET     PET   YIELD   YIELD    SURQ    LATQ    PERC    CROP  ORGANIC SOLUBLE ORGANIC TILENO3
         (mm)    (mm)    (mm)    (mm)    (mm)    (mm)    (mm)    (mm)    (mm)    (mm)   (t/ha)  ------------------(kg nutrient/ha)-------------------- (kg/ha)
    1   81.07    4.96    2.08   40.88   46.74    0.00  223.58   26.60   37.57   49.26    0.26    0.01    0.02    2.80    0.00     0.33    0.00    0.05    0.00
    2   52.28    5.57    0.65   36.51   14.53    0.00  226.66   28.17   62.98   42.77    0.28    0.01    0.01    0.75    0.00     0.29    0.00    0.04    0.00
    3  129.64   10.76    3.60   40.23   80.78    0.00  222.17   39.19   62.54   57.60    0.44    0.01    0.03    4.83    0.00     0.92    0.00    0.12    0.00
    4   74.57    4.13    1.62   46.18   27.66    0.00  205.58   57.91  111.37   53.80    0.23    0.01    0.01    1.53    3.43     0.28    0.00    0.04    0.00
    5  169.86   17.94    3.53   49.31   71.88    0.00  216.38   65.64   92.80   72.87    0.70    0.32    0.04    3.36   24.73     1.06    0.00    0.14    0.00
    6  101.29   14.52    1.93   48.45   32.76    0.00  176.78   91.76  140.36   67.09    0.22    0.00    0.00    0.54   32.24     0.39    0.00    0.05    0.00
    7  108.67    6.84    1.04   36.45    1.77    0.00  178.01   97.70  152.87   46.48    0.07    0.01    0.00    0.04   34.67     0.12    0.00    0.02    0.00
    8  110.06    4.22    1.57   13.54    8.60    0.00  185.74   87.99  151.70   21.16    0.03    0.01    0.00    0.07    7.40     0.05    0.00    0.01    0.00
    9  110.02   17.60    1.65    7.72   15.69    0.00  202.45   58.37  113.35   28.43    0.19    0.18    0.01    0.20    0.37     0.44    0.00    0.06    0.00
   10   49.75    0.64    0.65    9.23    3.19    0.00  202.20   45.58   76.56   11.79    0.01    0.03    0.01    0.09    0.21     0.01    0.00    0.00    0.00
   11  168.84   30.78    3.78   15.13   77.59    0.00  226.07   32.66   52.40   50.77    0.26    0.10    0.05    2.13    0.06     0.88    0.01    0.11    0.00
   12  137.49   15.81    3.54   48.34   89.21    0.00  229.74   24.98   38.05   68.46    0.20    0.05    0.03    4.12    0.00     0.44    0.00    0.06    0.00

 2009 1293.54  133.77   25.64  391.98  470.40    0.00  229.74  656.54 1092.55  570.50    2.88    0.73    0.22   20.44  103.11     5.21    0.04    0.68    0.00
1
    SWAT Dec 23 2016    VER 2016/Rev 664                                            

    General Input/Output section (file.cio):                                        
    1/28/2018 12:00:00 AM ARCGIS-SWAT interface AV                                  
                                                                                    
Annual Summary for Watershed in year   17 of simulation

UNIT                                    PERCO    TILE                           WATER     SED     NO3     NO3     NO3     NO3        N       P       P
TIME     PREC    SURQ    LATQ     GWQ    LATE       Q     SW       ET     PET   YIELD   YIELD    SURQ    LATQ    PERC    CROP  ORGANIC SOLUBLE ORGANIC TILENO3
         (mm)    (mm)    (mm)    (mm)    (mm)    (mm)    (mm)    (mm)    (mm)    (mm)   (t/ha)  ------------------(kg nutrient/ha)-------------------- (kg/ha)
    1   97.39    7.44    2.40   57.13   49.38    0.00  225.55   24.16   40.50   69.95    0.27    0.05    0.02    2.57    0.00     0.44    0.00    0.06    0.00
    2   82.09   11.63    2.83   60.00   65.93    0.00  219.96   25.92   39.13   76.66    0.56    0.01    0.02    3.71    0.00     0.76    0.00    0.10    0.00
    3   75.37    3.11    1.34   56.37   24.21    0.00  218.75   47.86   83.60   63.37    0.14    0.01    0.01    1.32    0.00     0.17    0.00    0.02    0.00
    4   44.20    1.19    0.51   34.23    0.94    0.00  212.93   47.47  127.21   38.21    0.07    0.01    0.00    0.05    1.64     0.07    0.00    0.01    0.00
    5  159.42   23.23    2.89   19.06   54.67    0.00  214.87   76.50  131.37   47.11    0.56    0.39    0.03    2.12   29.64     1.04    0.00    0.13    0.00
    6   73.94    2.34    1.29   30.99   15.69    0.00  165.28  104.38  160.40   36.50    0.04    0.00    0.00    0.56   32.71     0.06    0.00    0.01    0.00
    7   36.75    0.36    0.34   19.19    0.00    0.00  107.65   93.72  180.65   21.63    0.00    0.00    0.00    0.00   28.83     0.00    0.00    0.00    0.00
    8   41.29    0.25    0.36    2.24    0.00    0.00   83.43   64.91  181.14    4.25    0.00    0.00    0.00    0.00    2.29     0.00    0.00    0.00    0.00
    9  257.97   59.19    2.68    0.11   24.38    0.00  213.18   39.91  151.83   53.06    0.57    0.14    0.03    0.51    0.19     1.70    0.03    0.21    0.00
   10   42.82    1.01    2.59   10.89    8.41    0.00  198.84   47.15  107.06   25.44    0.01    0.02    0.02    0.27    0.09     0.41    0.01    0.05    0.00
   11   31.06    1.26    0.49   11.61    3.99    0.00  193.66   30.55   69.72   14.25    0.02    0.00    0.01    0.20    0.02     0.04    0.00    0.00    0.00
   12   69.03    1.71    1.26    8.55   22.33    0.00  217.38   19.88   33.89   12.29    0.02    0.01    0.01    0.96    0.00     0.05    0.00    0.01    0.00

 2010 1011.33  112.72   18.98  310.37  269.93    0.00  217.38  622.41 1306.50  462.72    2.25    0.66    0.16   12.27   95.40     4.75    0.05    0.60    0.00
1
    SWAT Dec 23 2016    VER 2016/Rev 664                                            

    General Input/Output section (file.cio):                                        
    1/28/2018 12:00:00 AM ARCGIS-SWAT interface AV                                  
                                                                                    
    FINAL VALUES

1
    SWAT Dec 23 2016    VER 2016/Rev 664                                            

    General Input/Output section (file.cio):                                        
    1/28/2018 12:00:00 AM ARCGIS-SWAT interface AV                                  
                                                                                    
                                            Average Plant Values (kg/ha)

  HRU       1 SUB   1 SOYB  Yld =  2291.3 BIOM =   9593.0
  HRU       2 SUB   1 SOYB  Yld =  2191.3 BIOM =   9179.0
  HRU       3 SUB   1 BERM  Yld = 17571.6 BIOM =  25207.7
  HRU       4 SUB   1 BERM  Yld = 15579.6 BIOM =  22285.2
  HRU       5 SUB   1 FRSD  Yld =  1374.3 BIOM =   5860.6
  HRU       6 SUB   1 FRSE  Yld =  1494.6 BIOM =   6454.3
  HRU       7 SUB   1 PAST  Yld =   132.2 BIOM =   1143.9
  HRU       8 SUB   2 SOYB  Yld =  2291.0 BIOM =   9591.7
  HRU       9 SUB   2 SOYB  Yld =  2228.6 BIOM =   9337.4
  HRU      10 SUB   2 SOYB  Yld =  2191.5 BIOM =   9179.8
  HRU      11 SUB   2 SOYB  Yld =  2263.1 BIOM =   9471.3
  HRU      12 SUB   2 BERM  Yld = 17589.0 BIOM =  25232.9
  HRU      13 SUB   2 BERM  Yld = 16083.3 BIOM =  23020.6
  HRU      14 SUB   2 BERM  Yld = 15581.6 BIOM =  22288.1
  HRU      15 SUB   2 FRSD  Yld =  1986.2 BIOM =   8138.4
  HRU      16 SUB   2 FRSD  Yld =  1373.4 BIOM =   5857.1
  HRU      17 SUB   2 FRSE  Yld =  2099.5 BIOM =   8719.4
  HRU      18 SUB   2 FRSE  Yld =  1494.3 BIOM =   6452.5
  HRU      19 SUB   2 PAST  Yld =   209.7 BIOM =   2351.9
  HRU      20 SUB   2 PAST  Yld =   154.9 BIOM =   1329.2
  HRU      21 SUB   2 PAST  Yld =   132.5 BIOM =   1145.8
  HRU      22 SUB   2 PAST  Yld =    80.3 BIOM =    685.5
  HRU      23 SUB   2 WETF  Yld =  2670.4 BIOM =   6292.0
  HRU      24 SUB   2 WETF  Yld =  1942.9 BIOM =   4701.6
  HRU      25 SUB   3 SOYB  Yld =  2301.4 BIOM =   9633.5
  HRU      26 SUB   3 SOYB  Yld =  2292.2 BIOM =   9596.5
  HRU      27 SUB   3 SOYB  Yld =  2229.1 BIOM =   9339.5
  HRU      28 SUB   3 BERM  Yld = 17412.2 BIOM =  24965.4
  HRU      29 SUB   3 BERM  Yld = 17782.6 BIOM =  25504.3
  HRU      30 SUB   3 BERM  Yld = 16160.0 BIOM =  23120.5
  HRU      31 SUB   3 FRSD  Yld =  2770.1 BIOM =  10997.5
  HRU      32 SUB   3 FRSD  Yld =  1982.6 BIOM =   8114.2
  HRU      33 SUB   3 FRSD  Yld =  1456.5 BIOM =   6175.2
  HRU      34 SUB   3 FRSE  Yld =  3109.6 BIOM =  12393.2
  HRU      35 SUB   3 FRSE  Yld =  2100.1 BIOM =   8718.4
  HRU      36 SUB   3 FRSE  Yld =  1601.1 BIOM =   6890.8
  HRU      37 SUB   3 RNGB  Yld =   459.5 BIOM =   4794.1
  HRU      38 SUB   3 RNGB  Yld =   325.5 BIOM =   3853.2
  HRU      39 SUB   3 RNGB  Yld =   250.5 BIOM =   2822.4
  HRU      40 SUB   3 PAST  Yld =   212.2 BIOM =   2353.7
  HRU      41 SUB   3 PAST  Yld =   154.8 BIOM =   1325.0
  HRU      42 SUB   3 WETF  Yld =  4500.3 BIOM =  10169.8
  HRU      43 SUB   3 WETF  Yld =  2673.7 BIOM =   6296.9
  HRU      44 SUB   3 WETF  Yld =  2033.1 BIOM =   4894.1
  HRU      45 SUB   4 SOYB  Yld =  2300.0 BIOM =   9625.8
  HRU      46 SUB   4 SOYB  Yld =  2235.7 BIOM =   9364.4
  HRU      47 SUB   4 SOYB  Yld =  2197.3 BIOM =   9200.8
  HRU      48 SUB   4 BERM  Yld = 16558.1 BIOM =  23715.8
  HRU      49 SUB   4 BERM  Yld = 17790.4 BIOM =  25515.6
  HRU      50 SUB   4 BERM  Yld = 16155.8 BIOM =  23114.4
  HRU      51 SUB   4 BERM  Yld = 15633.7 BIOM =  22352.3
  HRU      52 SUB   4 FRSD  Yld =  1983.6 BIOM =   8118.9
  HRU      53 SUB   4 FRSD  Yld =  1457.0 BIOM =   6177.0
  HRU      54 SUB   4 FRSD  Yld =  1372.7 BIOM =   5854.6
  HRU      55 SUB   4 FRSE  Yld =  1094.6 BIOM =   5054.0
  HRU      56 SUB   4 FRSE  Yld =  2100.1 BIOM =   8718.2
  HRU      57 SUB   4 FRSE  Yld =  1600.5 BIOM =   6888.1
  HRU      58 SUB   4 FRSE  Yld =  1494.2 BIOM =   6453.1
  HRU      59 SUB   4 RNGB  Yld =   174.7 BIOM =   2459.8
  HRU      60 SUB   4 RNGB  Yld =   325.5 BIOM =   3853.2
  HRU      61 SUB   4 RNGB  Yld =   250.5 BIOM =   2821.2
  HRU      62 SUB   4 RNGB  Yld =   220.0 BIOM =   2325.3
  HRU      63 SUB   4 PAST  Yld =   211.4 BIOM =   2355.8
  HRU      64 SUB   4 PAST  Yld =   154.8 BIOM =   1325.7
  HRU      65 SUB   4 PAST  Yld =   132.6 BIOM =   1145.8
  HRU      66 SUB   4 WETF  Yld =  1267.3 BIOM =   3336.2
  HRU      67 SUB   4 WETF  Yld =  2674.4 BIOM =   6298.2
  HRU      68 SUB   4 WETF  Yld =  2033.7 BIOM =   4895.5
  HRU      69 SUB   4 WETF  Yld =  1929.2 BIOM =   4673.0
  HRU      70 SUB   5 SOYB  Yld =  2301.4 BIOM =   9633.4
  HRU      71 SUB   5 SOYB  Yld =  2292.0 BIOM =   9595.8
  HRU      72 SUB   5 SOYB  Yld =  2228.9 BIOM =   9339.1
  HRU      73 SUB   5 BERM  Yld = 17412.0 BIOM =  24965.1
  HRU      74 SUB   5 BERM  Yld = 17792.4 BIOM =  25518.5
  HRU      75 SUB   5 BERM  Yld = 16158.2 BIOM =  23117.8
  HRU      76 SUB   5 FRSD  Yld =  2770.1 BIOM =  10997.4
  HRU      77 SUB   5 FRSD  Yld =  1981.0 BIOM =   8107.6
  HRU      78 SUB   5 FRSD  Yld =  1457.4 BIOM =   6178.5
  HRU      79 SUB   5 FRSE  Yld =  3109.4 BIOM =  12392.7
  HRU      80 SUB   5 FRSE  Yld =  2100.1 BIOM =   8718.4
  HRU      81 SUB   5 FRSE  Yld =  1600.8 BIOM =   6889.4
  HRU      82 SUB   5 RNGB  Yld =   459.4 BIOM =   4793.9
  HRU      83 SUB   5 RNGB  Yld =   325.5 BIOM =   3852.9
  HRU      84 SUB   5 RNGB  Yld =   250.5 BIOM =   2822.3
  HRU      85 SUB   5 WETF  Yld =  4495.3 BIOM =  10159.3
  HRU      86 SUB   5 WETF  Yld =  2676.3 BIOM =   6301.7
  HRU      87 SUB   5 WETF  Yld =  2033.0 BIOM =   4893.8
  HRU      88 SUB   6 CORN  Yld =  9723.2 BIOM =  25168.8
  HRU      89 SUB   6 CORN  Yld =  9143.3 BIOM =  23794.3
  HRU      90 SUB   6 SOYB  Yld =  2320.1 BIOM =   9719.2
  HRU      91 SUB   6 SOYB  Yld =  2254.8 BIOM =   9455.9
  HRU      92 SUB   6 FRSE  Yld =  3138.9 BIOM =  12494.5
  HRU      93 SUB   6 FRSE  Yld =  1603.4 BIOM =   6902.5
  HRU      94 SUB   6 RNGB  Yld =   453.0 BIOM =   4823.7
  HRU      95 SUB   6 RNGB  Yld =   246.4 BIOM =   2811.3
  HRU      96 SUB   6 WETF  Yld =  4520.4 BIOM =  10217.0
  HRU      97 SUB   6 WETF  Yld =  2034.5 BIOM =   4904.5
  HRU      98 SUB   7 SOYB  Yld =  2309.7 BIOM =   9664.8
  HRU      99 SUB   7 SOYB  Yld =  2236.5 BIOM =   9367.7
  HRU     100 SUB   7 WWHT  Yld =  3573.7 BIOM =  11572.3
  HRU     101 SUB   7 WWHT  Yld =  3564.4 BIOM =  11542.1
  HRU     102 SUB   7 WWHT  Yld =  3425.9 BIOM =  11094.1
  HRU     103 SUB   7 BERM  Yld = 17412.6 BIOM =  24966.0
  HRU     104 SUB   7 BERM  Yld = 16164.5 BIOM =  23127.5
  HRU     105 SUB   7 FRSD  Yld =  2891.6 BIOM =  10925.8
  HRU     106 SUB   7 FRSD  Yld =  1507.6 BIOM =   6081.5
  HRU     107 SUB   7 FRSE  Yld =  3109.6 BIOM =  12393.2
  HRU     108 SUB   7 FRSE  Yld =  1599.5 BIOM =   6883.9
  HRU     109 SUB   7 RNGB  Yld =   462.1 BIOM =   4812.3
  HRU     110 SUB   7 RNGB  Yld =   251.7 BIOM =   2825.9
  HRU     111 SUB   7 WETF  Yld =  1276.7 BIOM =   3357.7
  HRU     112 SUB   7 WETF  Yld =  4501.2 BIOM =  10170.4
  HRU     113 SUB   7 WETF  Yld =  2035.6 BIOM =   4899.0
  HRU     114 SUB   8 SOYB  Yld =  2309.4 BIOM =   9672.1
  HRU     115 SUB   8 SOYB  Yld =  2320.1 BIOM =   9719.2
  HRU     116 SUB   8 SOYB  Yld =  2254.9 BIOM =   9456.3
  HRU     117 SUB   8 BERM  Yld = 16740.7 BIOM =  23982.2
  HRU     118 SUB   8 BERM  Yld = 17523.5 BIOM =  25120.9
  HRU     119 SUB   8 BERM  Yld = 16327.6 BIOM =  23367.6
  HRU     120 SUB   8 BERM  Yld = 17693.3 BIOM =  25366.9
  HRU     121 SUB   8 BERM  Yld = 16706.5 BIOM =  23923.8
  HRU     122 SUB   8 BERM  Yld = 17524.9 BIOM =  25122.8
  HRU     123 SUB   8 BERM  Yld = 16342.3 BIOM =  23389.3
  HRU     124 SUB   8 FRSE  Yld =  1102.7 BIOM =   5085.9
  HRU     125 SUB   8 FRSE  Yld =  3139.1 BIOM =  12495.1
  HRU     126 SUB   8 FRSE  Yld =  1603.6 BIOM =   6903.3
  HRU     127 SUB   8 RNGB  Yld =   174.2 BIOM =   2492.0
  HRU     128 SUB   8 RNGB  Yld =   454.8 BIOM =   4838.9
  HRU     129 SUB   8 RNGB  Yld =   247.8 BIOM =   2830.5
  HRU     130 SUB   8 WETF  Yld =  1283.6 BIOM =   3387.9
  HRU     131 SUB   8 WETF  Yld =  4517.5 BIOM =  10210.2
  HRU     132 SUB   8 WETF  Yld =  2038.8 BIOM =   4914.0
  HRU     133 SUB   9 COTP  Yld =  1201.8 BIOM =   7463.7
  HRU     134 SUB   9 COTP  Yld =  1094.9 BIOM =   6972.2
  HRU     135 SUB   9 SOYB  Yld =  2318.8 BIOM =   9696.3
  HRU     136 SUB   9 SOYB  Yld =  2319.2 BIOM =   9701.2
  HRU     137 SUB   9 SOYB  Yld =  2285.9 BIOM =   9570.3
  HRU     138 SUB   9 WWHT  Yld =  3565.1 BIOM =  11541.6
  HRU     139 SUB   9 WWHT  Yld =  3510.3 BIOM =  11363.7
  HRU     140 SUB   9 FRSE  Yld =  1112.6 BIOM =   5129.8
  HRU     141 SUB   9 FRSE  Yld =  2114.5 BIOM =   8791.9
  HRU     142 SUB   9 FRSE  Yld =  1632.1 BIOM =   7016.2
  HRU     143 SUB   9 RNGB  Yld =   278.8 BIOM =   2351.5
  HRU     144 SUB   9 RNGB  Yld =   490.9 BIOM =   3633.1
  HRU     145 SUB   9 RNGB  Yld =   376.7 BIOM =   2714.3
  HRU     146 SUB   9 WETF  Yld =  1290.5 BIOM =   3368.9
  HRU     147 SUB   9 WETF  Yld =  2678.1 BIOM =   6321.4
  HRU     148 SUB   9 WETF  Yld =  2053.9 BIOM =   4950.4
  HRU     149 SUB  10 COTP  Yld =  1124.8 BIOM =   7080.6
  HRU     150 SUB  10 COTP  Yld =  1202.0 BIOM =   7465.7
  HRU     151 SUB  10 COTP  Yld =  1095.5 BIOM =   6976.4
  HRU     152 SUB  10 SOYB  Yld =  2318.8 BIOM =   9696.3
  HRU     153 SUB  10 SOYB  Yld =  2319.3 BIOM =   9701.3
  HRU     154 SUB  10 SOYB  Yld =  2286.1 BIOM =   9570.9
  HRU     155 SUB  10 WWHT  Yld =  3600.1 BIOM =  11654.8
  HRU     156 SUB  10 WWHT  Yld =  3565.1 BIOM =  11541.6
  HRU     157 SUB  10 WWHT  Yld =  3510.6 BIOM =  11364.9
  HRU     158 SUB  10 FRSE  Yld =  1112.2 BIOM =   5128.2
  HRU     159 SUB  10 FRSE  Yld =  2114.6 BIOM =   8792.1
  HRU     160 SUB  10 FRSE  Yld =  1631.6 BIOM =   7014.1
  HRU     161 SUB  10 RNGB  Yld =   275.6 BIOM =   2334.5
  HRU     162 SUB  10 RNGB  Yld =   491.0 BIOM =   3631.0
  HRU     163 SUB  10 RNGB  Yld =   375.3 BIOM =   2697.8
  HRU     164 SUB  10 WETF  Yld =  1290.4 BIOM =   3368.8
  HRU     165 SUB  10 WETF  Yld =  2681.4 BIOM =   6328.6
  HRU     166 SUB  10 WETF  Yld =  2050.9 BIOM =   4943.1
  HRU     167 SUB  11 SOYB  Yld =  2309.4 BIOM =   9672.1
  HRU     168 SUB  11 SOYB  Yld =  2320.1 BIOM =   9719.2
  HRU     169 SUB  11 SOYB  Yld =  2254.7 BIOM =   9455.7
  HRU     170 SUB  11 FRSE  Yld =  3139.2 BIOM =  12495.5
  HRU     171 SUB  11 FRSE  Yld =  1604.6 BIOM =   6907.4
  HRU     172 SUB  11 RNGB  Yld =   175.9 BIOM =   2505.1
  HRU     173 SUB  11 RNGB  Yld =   454.8 BIOM =   4839.0
  HRU     174 SUB  11 RNGB  Yld =   247.9 BIOM =   2832.0
  HRU     175 SUB  11 WETF  Yld =  1279.9 BIOM =   3379.0
  HRU     176 SUB  11 WETF  Yld =  4512.8 BIOM =  10200.5
  HRU     177 SUB  11 WETF  Yld =  2038.6 BIOM =   4913.5
  HRU     178 SUB  12 SOYB  Yld =  2322.6 BIOM =   9715.4
  HRU     179 SUB  12 SOYB  Yld =  2281.1 BIOM =   9550.0
  HRU     180 SUB  12 TOBC  Yld = 10476.2 BIOM =  24601.8
  HRU     181 SUB  12 TOBC  Yld =  9962.4 BIOM =  23391.3
  HRU     182 SUB  12 WWHT  Yld =  3564.6 BIOM =  11550.1
  HRU     183 SUB  12 WWHT  Yld =  3485.8 BIOM =  11294.6
  HRU     184 SUB  12 FRSE  Yld =  3159.0 BIOM =  12574.8
  HRU     185 SUB  12 FRSE  Yld =  2115.8 BIOM =   8788.9
  HRU     186 SUB  12 FRSE  Yld =  1623.9 BIOM =   6981.0
  HRU     187 SUB  12 RNGB  Yld =   325.3 BIOM =   3922.4
  HRU     188 SUB  12 RNGB  Yld =   248.6 BIOM =   2895.0
  HRU     189 SUB  12 WETF  Yld =  2695.7 BIOM =   6352.1
  HRU     190 SUB  12 WETF  Yld =  2051.4 BIOM =   4939.4
  HRU     191 SUB  13 SOYB  Yld =  2318.8 BIOM =   9696.3
  HRU     192 SUB  13 SOYB  Yld =  2319.3 BIOM =   9701.3
  HRU     193 SUB  13 SOYB  Yld =  2285.9 BIOM =   9570.3
  HRU     194 SUB  13 SOYB  Yld =  2321.2 BIOM =   9705.9
  HRU     195 SUB  13 FRSE  Yld =  1111.8 BIOM =   5126.8
  HRU     196 SUB  13 FRSE  Yld =  3157.1 BIOM =  12579.9
  HRU     197 SUB  13 FRSE  Yld =  2114.7 BIOM =   8791.7
  HRU     198 SUB  13 FRSE  Yld =  1632.1 BIOM =   7016.2
  HRU     199 SUB  13 FRSE  Yld =  1737.6 BIOM =   7375.2
  HRU     200 SUB  13 RNGB  Yld =   275.7 BIOM =   2334.8
  HRU     201 SUB  13 RNGB  Yld =   664.3 BIOM =   4499.8
  HRU     202 SUB  13 RNGB  Yld =   491.0 BIOM =   3628.3
  HRU     203 SUB  13 RNGB  Yld =   376.8 BIOM =   2715.5
  HRU     204 SUB  13 RNGB  Yld =   347.3 BIOM =   2556.9
  HRU     205 SUB  13 WETF  Yld =  1286.5 BIOM =   3359.5
  HRU     206 SUB  13 WETF  Yld =  2683.2 BIOM =   6331.4
  HRU     207 SUB  13 WETF  Yld =  2054.7 BIOM =   4952.1
  HRU     208 SUB  13 WETF  Yld =  2175.3 BIOM =   5224.3
  HRU     209 SUB  14 SOYB  Yld =  2322.6 BIOM =   9715.5
  HRU     210 SUB  14 WWHT  Yld =  3564.6 BIOM =  11550.3
  HRU     211 SUB  14 FRSE  Yld =  3158.8 BIOM =  12574.4
  HRU     212 SUB  14 FRSE  Yld =  2116.0 BIOM =   8789.4
  HRU     213 SUB  14 RNGB  Yld =   325.4 BIOM =   3921.9
  HRU     214 SUB  14 WETF  Yld =  2701.6 BIOM =   6364.7
  HRU     215 SUB  15 SOYB  Yld =  2319.3 BIOM =   9701.3
  HRU     216 SUB  15 SOYB  Yld =  2285.4 BIOM =   9568.2
  HRU     217 SUB  15 SOYB  Yld =  2321.3 BIOM =   9705.9
  HRU     218 SUB  15 WWHT  Yld =  3565.6 BIOM =  11543.1
  HRU     219 SUB  15 WWHT  Yld =  3509.9 BIOM =  11362.7
  HRU     220 SUB  15 WWHT  Yld =  3646.5 BIOM =  11805.2
  HRU     221 SUB  15 FRSE  Yld =  3155.0 BIOM =  12573.0
  HRU     222 SUB  15 FRSE  Yld =  2113.8 BIOM =   8789.4
  HRU     223 SUB  15 FRSE  Yld =  1632.8 BIOM =   7019.8
  HRU     224 SUB  15 FRSE  Yld =  1737.9 BIOM =   7376.5
  HRU     225 SUB  15 RNGB  Yld =   664.3 BIOM =   4499.4
  HRU     226 SUB  15 RNGB  Yld =   490.9 BIOM =   3631.7
  HRU     227 SUB  15 RNGB  Yld =   377.3 BIOM =   2721.6
  HRU     228 SUB  15 RNGB  Yld =   345.8 BIOM =   2548.1
  HRU     229 SUB  15 WETF  Yld =  2682.5 BIOM =   6330.0
  HRU     230 SUB  15 WETF  Yld =  2053.9 BIOM =   4950.3
  HRU     231 SUB  15 WETF  Yld =  2182.5 BIOM =   5241.5
  HRU     232 SUB  16 COTP  Yld =  1175.6 BIOM =   7404.9
  HRU     233 SUB  16 COTP  Yld =  1202.9 BIOM =   7471.0
  HRU     234 SUB  16 SOYB  Yld =  2320.7 BIOM =   9705.9
  HRU     235 SUB  16 SOYB  Yld =  2319.3 BIOM =   9701.4
  HRU     236 SUB  16 SOYB  Yld =  2285.8 BIOM =   9569.8
  HRU     237 SUB  16 WWHT  Yld =  3565.8 BIOM =  11543.7
  HRU     238 SUB  16 WWHT  Yld =  3510.3 BIOM =  11364.0
  HRU     239 SUB  16 BERM  Yld = 17649.0 BIOM =  25316.5
  HRU     240 SUB  16 BERM  Yld = 17802.0 BIOM =  25537.3
  HRU     241 SUB  16 BERM  Yld = 16814.6 BIOM =  24103.0
  HRU     242 SUB  16 FRSE  Yld =  3155.0 BIOM =  12573.0
  HRU     243 SUB  16 FRSE  Yld =  2113.9 BIOM =   8789.0
  HRU     244 SUB  16 FRSE  Yld =  1632.3 BIOM =   7017.7
  HRU     245 SUB  16 RNGB  Yld =   664.3 BIOM =   4499.6
  HRU     246 SUB  16 RNGB  Yld =   490.8 BIOM =   3620.8
  HRU     247 SUB  16 RNGB  Yld =   377.0 BIOM =   2718.2
  HRU     248 SUB  16 WETF  Yld =  4543.6 BIOM =  10286.9
  HRU     249 SUB  16 WETF  Yld =  2683.2 BIOM =   6331.6
  HRU     250 SUB  16 WETF  Yld =  2054.7 BIOM =   4952.2
  HRU     251 SUB  17 CORN  Yld =  8625.8 BIOM =  22649.7
  HRU     252 SUB  17 CORN  Yld =  9838.1 BIOM =  25421.8
  HRU     253 SUB  17 CORN  Yld =  9370.9 BIOM =  24246.1
  HRU     254 SUB  17 CORN  Yld =  9765.8 BIOM =  25232.4
  HRU     255 SUB  17 SOYB  Yld =  2130.4 BIOM =   8971.2
  HRU     256 SUB  17 SOYB  Yld =  2320.7 BIOM =   9705.9
  HRU     257 SUB  17 SOYB  Yld =  2319.3 BIOM =   9701.4
  HRU     258 SUB  17 SOYB  Yld =  2285.9 BIOM =   9570.4
  HRU     259 SUB  17 SOYB  Yld =  2321.3 BIOM =   9705.9
  HRU     260 SUB  17 FRSE  Yld =  4367.8 BIOM =  16979.9
  HRU     261 SUB  17 FRSE  Yld =  1706.5 BIOM =   7275.1
  HRU     262 SUB  17 FRSE  Yld =  3155.3 BIOM =  12573.9
  HRU     263 SUB  17 FRSE  Yld =  2113.8 BIOM =   8788.9
  HRU     264 SUB  17 FRSE  Yld =  1632.3 BIOM =   7017.7
  HRU     265 SUB  17 FRSE  Yld =  1736.3 BIOM =   7370.6
  HRU     266 SUB  17 RNGB  Yld =  1265.4 BIOM =   8309.5
  HRU     267 SUB  17 RNGB  Yld =   390.7 BIOM =   2772.0
  HRU     268 SUB  17 RNGB  Yld =   664.3 BIOM =   4500.1
  HRU     269 SUB  17 RNGB  Yld =   491.0 BIOM =   3629.1
  HRU     270 SUB  17 RNGB  Yld =   376.7 BIOM =   2714.6
  HRU     271 SUB  17 RNGB  Yld =   346.3 BIOM =   2551.3
  HRU     272 SUB  17 WETF  Yld =  6587.2 BIOM =  14566.2
  HRU     273 SUB  17 WETF  Yld =  2235.6 BIOM =   5354.1
  HRU     274 SUB  17 WETF  Yld =  2684.6 BIOM =   6334.0
  HRU     275 SUB  17 WETF  Yld =  2054.3 BIOM =   4951.1
  HRU     276 SUB  17 WETF  Yld =  2182.9 BIOM =   5242.4

    HRU STATISTICS

                AVE ANNUAL VALUES

   HRU  SUB  SOIL       AREAkm2    CN     AWCmm   USLE_LS  IRRmm  AUTONkh AUTOPkh  MIXEF PRECmm SURQGENmm   GWQmm    ETmm   SEDth  NO3kgh  ORGNkgh BIOMth   YLDth  SURQmm
      1   1   NORFOLK    .152E+01   78.00  311.40    0.36    0.00    0.00    0.00    0.20 1107.56  203.33  218.96  655.43    7.61    2.03   15.00    9.59    2.29  203.33
      2   1   WEDOWEE    .203E+02   78.00  163.58    0.52    0.00    0.00    0.00    0.20 1107.56  194.95  233.51  644.72   10.94    1.09   22.13    9.18    2.19  194.95
      3   1   NORFOLK    .878E+00   73.82  311.40    0.58    0.00  254.76    0.00    0.20 1107.56  278.57   91.79  718.69    1.46    6.87    3.22   25.21   17.57  278.57
      4   1   WEDOWEE    .144E+02   73.82  163.58    0.63    0.00  256.11    0.00    0.20 1107.56  290.73  130.05  659.74    2.80    5.20    5.96   22.29   15.58  290.74
      5   1   WEDOWEE    .612E+02   66.00  163.58    0.90    0.00    0.00    0.00    0.20 1107.56   82.79  323.80  662.13    0.04    0.02    0.20    6.21    0.00   82.79
      6   1   WEDOWEE    .401E+02   55.00  163.58    0.72    0.00    0.00    0.00    0.20 1107.56   33.95  377.81  655.40    0.01    0.01    0.06    6.72    0.00   33.95
      7   1   WEDOWEE    .190E+02   69.00  163.58    0.63    0.00    0.00    0.00    0.20 1107.56  107.26  307.08  655.00    2.40    0.04    5.77    0.23    0.10  107.26
      8   2   NORFOLK    .167E+02   78.00  311.40    0.46    0.00    0.00    0.00    0.20 1107.56  202.87  220.18  654.99    9.85    2.19   17.55    9.59    2.29  202.87
      9   2   AUTRYVIL   .512E+01   67.00  166.62    0.36    0.00    0.00    0.00    0.20 1107.56   97.32  385.43  583.78    2.60    1.08    6.16    9.34    2.23   97.32
     10   2   WEDOWEE    .128E+02   78.00  163.58    0.44    0.00    0.00    0.00    0.20 1107.56  195.03  233.33  644.78   11.28    1.07   21.49    9.18    2.19  195.03
     11   2   PACOLET    .276E+01   78.00  198.88    0.52    0.00    0.00    0.00    0.20 1107.56  206.91  270.32  593.91   11.47    1.20   18.43    9.47    2.26  206.91
     12   2   NORFOLK    .737E+01   73.82  311.40    0.52    0.00  254.74    0.00    0.20 1107.56  279.00   90.53  719.45    1.48    6.61    3.00   25.23   17.59  279.00
     13   2   AUTRYVIL   .184E+01   58.94  166.62    0.42    0.00  254.34    0.00    0.20 1107.56  233.88  226.57  613.41    0.75    4.76    1.44   23.02   16.08  233.88
     14   2   WEDOWEE    .565E+01   73.82  163.58    0.58    0.00  256.11    0.00    0.20 1107.56  290.76  129.95  659.78    2.99    5.22    5.87   22.29   15.58  290.77
     15   2   NORFOLK    .378E+02   66.00  311.40    0.65    0.00    0.00    0.00    0.20 1107.56   79.77  294.69  702.25    0.02    0.07    0.07    8.97    0.00   79.77
     16   2   WEDOWEE    .326E+02   66.00  163.58    0.72    0.00    0.00    0.00    0.20 1107.56   82.87  323.57  662.21    0.06    0.02    0.21    6.20    0.00   82.87
     17   2   NORFOLK    .216E+02   55.00  311.40    0.52    0.00    0.00    0.00    0.20 1107.56   32.50  342.51  698.83    0.01    0.05    0.02    9.46    0.00   32.50
     18   2   WEDOWEE    .220E+02   55.00  163.58    0.63    0.00    0.00    0.00    0.20 1107.56   33.97  377.70  655.43    0.02    0.01    0.06    6.72    0.00   33.97
     19   2   NORFOLK    .524E+01   69.00  311.40    0.52    0.00    0.00    0.00    0.20 1107.56  105.97  279.81  689.03    0.86    0.17    1.73    0.44    0.17  105.97
     20   2   AUTRYVIL   .786E+00   49.00  166.62    0.42    0.00    0.00    0.00    0.20 1107.56   21.76  453.47  587.88    0.14    0.04    0.18    0.26    0.11   21.76
     21   2   WEDOWEE    .568E+01   69.00  163.58    0.54    0.00    0.00    0.00    0.20 1107.56  107.30  306.86  655.07    2.59    0.04    5.42    0.23    0.10  107.30
     22   2   PACOLET    .880E+00   69.00  198.88    0.67    0.00    0.00    0.00    0.20 1107.56  121.52  366.30  578.37    4.72    0.02    5.48    0.13    0.05  121.52
     23   2   NORFOLK    .688E+01   66.00  311.40    0.38    0.00    0.00    0.00    0.20 1107.56   88.00  314.57  670.83    3.69    0.02    3.90    5.91    0.00   88.00
     24   2   WEDOWEE    .599E+01   66.00  163.58    0.48    0.00    0.00    0.00    0.20 1107.56   87.73  338.03  642.69    5.59    0.01    6.60    4.30    0.00   87.73
     25   3   RAINS      .137E+01   78.00  246.89    0.15    0.00    0.00    0.00    0.20 1107.56  195.44  213.68  666.43    2.75    1.02   17.40    9.63    2.30  195.44
     26   3   NORFOLK    .549E+01   78.00  311.40    0.21    0.00    0.00    0.00    0.20 1107.56  204.68  215.54  656.51    3.81    1.48   11.45    9.60    2.29  204.68
     27   3   AUTRYVIL   .110E+02   67.00  166.62    0.30    0.00    0.00    0.00    0.20 1107.56   97.44  384.92  583.98    1.85    0.97    5.28    9.34    2.23   97.44
     28   3   RAINS      .479E+00   73.82  246.89    0.17    0.00  258.03    0.00    0.20 1107.56  282.57   92.35  711.35    0.46    5.68    3.44   24.97   17.41  282.58
     29   3   NORFOLK    .108E+01   73.82  311.40    0.28    0.00  255.11    0.00    0.20 1107.56  280.30   85.63  725.20    0.67    6.29    1.96   25.50   17.78  280.30
     30   3   AUTRYVIL   .504E+01   58.94  166.62    0.30    0.00  255.51    0.00    0.20 1107.56  234.61  228.76  610.71    0.53    4.54    1.05   23.12   16.16  234.62
     31   3   RAINS      .761E+00   66.00  246.89    0.17    0.00    0.00    0.00    0.20 1107.56   75.17  282.39  713.28    0.01    0.03    0.04   12.51    0.00   75.17
     32   3   NORFOLK    .232E+01   66.00  311.40    0.30    0.00    0.00    0.00    0.20 1107.56   80.97  290.66  703.32    0.01    0.05    0.03    8.96    0.00   80.97
     33   3   AUTRYVIL   .461E+01   45.00  166.62    0.40    0.00    0.00    0.00    0.20 1107.56   14.36  450.88  597.91    0.00    0.02    0.00    6.58    0.00   14.36
     34   3   RAINS      .149E+01   55.00  246.89    0.15    0.00    0.00    0.00    0.20 1107.56   28.51  319.04  722.72    0.00    0.01    0.01   14.02    0.00   28.51
     35   3   NORFOLK    .186E+01   55.00  311.40    0.24    0.00    0.00    0.00    0.20 1107.56   33.25  338.17  700.33    0.00    0.02    0.01    9.46    0.00   33.25
     36   3   AUTRYVIL   .554E+01   35.00  166.62    0.44    0.00    0.00    0.00    0.20 1107.56    4.58  468.63  589.90    0.00    0.02    0.00    7.20    0.00    4.58
     37   3   RAINS      .443E+00   61.00  246.89    0.17    0.00    0.00    0.00    0.20 1107.56   62.52  382.86  620.74    0.05    0.04    0.36    1.06    0.46   62.52
     38   3   NORFOLK    .104E+01   61.00  311.40    0.29    0.00    0.00    0.00    0.20 1107.56   67.55  394.87  604.14    0.11    0.07    0.27    0.79    0.32   67.55
     39   3   AUTRYVIL   .414E+01   39.00  166.62    0.38    0.00    0.00    0.00    0.20 1107.56    8.76  533.40  516.85    0.01    0.05    0.02    0.59    0.25    8.76
     40   3   NORFOLK    .160E+01   69.00  311.40    0.26    0.00    0.00    0.00    0.20 1107.56  107.36  275.03  690.59    0.32    0.10    0.79    0.45    0.18  107.36
     41   3   AUTRYVIL   .412E+01   49.00  166.62    0.31    0.00    0.00    0.00    0.20 1107.56   21.80  453.02  587.95    0.11    0.04    0.15    0.26    0.11   21.80
     42   3   RAINS      .582E+00   66.00  246.89    0.18    0.00    0.00    0.00    0.20 1107.56   79.34  290.29  702.53    1.58    0.01    6.12    9.96    0.00   79.34
     43   3   NORFOLK    .230E+01   66.00  311.40    0.29    0.00    0.00    0.00    0.20 1107.56   88.67  312.03  671.68    2.45    0.01    3.05    5.92    0.00   88.67
     44   3   AUTRYVIL   .676E+01   45.00  166.62    0.31    0.00    0.00    0.00    0.20 1107.56   14.93  476.53  570.70    0.19    0.01    0.18    4.50    0.00   14.93
     45   4   NORFOLK    .775E+01   78.00  311.40    0.29    0.00    0.00    0.00    0.20 1107.56  204.18  216.41  656.53    5.66    1.63   13.92    9.63    2.30  204.18
     46   4   AUTRYVIL   .267E+02   67.00  166.62    0.30    0.00    0.00    0.00    0.20 1107.56   97.43  384.87  584.06    1.67    0.97    5.26    9.36    2.24   97.43
     47   4   WEDOWEE    .130E+02   78.00  163.58    0.44    0.00    0.00    0.00    0.20 1107.56  195.05  233.40  644.69   11.04    1.08   21.48    9.20    2.20  195.05
     48   4   ROANOKE    .806E+00   86.22  252.73    0.36    0.00  260.63    0.00    0.20 1107.56  391.54   17.29  689.55    3.27    9.66    5.03   23.72   16.56  391.55
     49   4   NORFOLK    .156E+01   73.82  311.40    0.31    0.00  255.01    0.00    0.20 1107.56  281.12   83.73  726.02    0.71    6.12    2.00   25.52   17.79  281.13
     50   4   AUTRYVIL   .779E+01   58.94  166.62    0.33    0.00  255.51    0.00    0.20 1107.56  234.57  228.97  610.62    0.61    4.57    1.12   23.11   16.16  234.57
     51   4   WEDOWEE    .182E+01   73.82  163.58    0.48    0.00  256.51    0.00    0.20 1107.56  292.18  132.15  656.00    2.23    5.26    5.15   22.35   15.63  292.18
     52   4   NORFOLK    .611E+01   66.00  311.40    0.40    0.00    0.00    0.00    0.20 1107.56   80.57  291.94  703.04    0.02    0.05    0.04    8.96    0.00   80.57
     53   4   AUTRYVIL   .116E+02   45.00  166.62    0.44    0.00    0.00    0.00    0.20 1107.56   14.35  450.99  597.92    0.00    0.03    0.00    6.58    0.00   14.35
     54   4   WEDOWEE    .102E+02   66.00  163.58    0.90    0.00    0.00    0.00    0.20 1107.56   82.79  323.72  662.20    0.09    0.02    0.28    6.20    0.00   82.79
     55   4   ROANOKE    .234E+01   77.00  252.73    0.33    0.00    0.00    0.00    0.20 1107.56  194.67  201.86  680.62    0.17    0.03    0.37    4.92    0.00  194.67
     56   4   NORFOLK    .779E+01   55.00  311.40    0.20    0.00    0.00    0.00    0.20 1107.56   33.31  337.66  700.56    0.00    0.02    0.01    9.46    0.00   33.31
     57   4   AUTRYVIL   .123E+02   35.00  166.62    0.33    0.00    0.00    0.00    0.20 1107.56    4.59  468.03  590.15    0.00    0.02    0.00    7.20    0.00    4.59
     58   4   WEDOWEE    .882E+01   55.00  163.58    0.82    0.00    0.00    0.00    0.20 1107.56   33.93  377.84  655.44    0.03    0.01    0.09    6.72    0.00   33.93
     59   4   ROANOKE    .164E+01   80.00  252.73    0.33    0.00    0.00    0.00    0.20 1107.56  255.36  203.22  615.94    2.13    0.12    3.42    0.45    0.17  255.36
     60   4   NORFOLK    .209E+01   61.00  311.40    0.29    0.00    0.00    0.00    0.20 1107.56   67.54  394.79  604.22    0.12    0.07    0.29    0.79    0.32   67.54
     61   4   AUTRYVIL   .763E+01   39.00  166.62    0.36    0.00    0.00    0.00    0.20 1107.56    8.76  533.24  516.94    0.01    0.05    0.02    0.59    0.25    8.76
     62   4   WEDOWEE    .333E+01   61.00  163.58    0.72    0.00    0.00    0.00    0.20 1107.56   64.50  406.89  593.50    0.74    0.03    1.75    0.51    0.22   64.50
     63   4   NORFOLK    .195E+01   69.00  311.40    0.31    0.00    0.00    0.00    0.20 1107.56  106.71  277.10  690.01    0.47    0.13    1.03    0.45    0.18  106.71
     64   4   AUTRYVIL   .747E+01   49.00  166.62    0.33    0.00    0.00    0.00    0.20 1107.56   21.80  453.02  588.01    0.12    0.04    0.17    0.26    0.11   21.80
     65   4   WEDOWEE    .330E+01   69.00  163.58    0.56    0.00    0.00    0.00    0.20 1107.56  107.31  306.83  655.10    2.65    0.04    5.42    0.23    0.10  107.31
     66   4   ROANOKE    .851E+01   83.00  252.73    0.29    0.00    0.00    0.00    0.20 1107.56  293.77  134.42  653.45   19.71    0.01    8.24    2.81    0.00  293.77
     67   4   NORFOLK    .363E+01   66.00  311.40    0.26    0.00    0.00    0.00    0.20 1107.56   88.75  311.63  671.87    2.25    0.01    2.90    5.92    0.00   88.75
     68   4   AUTRYVIL   .140E+02   45.00  166.62    0.36    0.00    0.00    0.00    0.20 1107.56   14.92  476.72  570.69    0.23    0.01    0.20    4.50    0.00   14.92
     69   4   WEDOWEE    .561E+01   66.00  163.58    0.80    0.00    0.00    0.00    0.20 1107.56   87.64  338.53  642.35    9.46    0.01    8.38    4.27    0.00   87.64
     70   5   RAINS      .808E+01   78.00  246.89    0.17    0.00    0.00    0.00    0.20 1107.56  195.41  213.83  666.33    3.40    1.02   20.37    9.63    2.30  195.41
     71   5   NORFOLK    .185E+02   78.00  311.40    0.27    0.00    0.00    0.00    0.20 1107.56  204.41  216.29  656.21    4.27    1.60   13.02    9.60    2.29  204.41
     72   5   AUTRYVIL   .336E+02   67.00  166.62    0.31    0.00    0.00    0.00    0.20 1107.56   97.41  385.06  583.92    1.33    1.00    4.90    9.34    2.23   97.41
     73   5   RAINS      .400E+01   73.82  246.89    0.17    0.00  258.04    0.00    0.20 1107.56  282.57   92.38  711.32    0.53    5.47    3.45   24.97   17.41  282.58
     74   5   NORFOLK    .304E+01   73.82  311.40    0.26    0.00  254.96    0.00    0.20 1107.56  281.52   82.99  726.26    0.60    5.98    1.70   25.52   17.79  281.53
     75   5   AUTRYVIL   .139E+02   58.94  166.62    0.31    0.00  255.51    0.00    0.20 1107.56  234.59  228.93  610.61    0.50    4.53    1.00   23.12   16.16  234.60
     76   5   RAINS      .273E+01   66.00  246.89    0.18    0.00    0.00    0.00    0.20 1107.56   75.16  282.45  713.24    0.01    0.03    0.04   12.51    0.00   75.16
     77   5   NORFOLK    .673E+01   66.00  311.40    0.31    0.00    0.00    0.00    0.20 1107.56   81.38  289.40  703.62    0.01    0.04    0.03    8.95    0.00   81.38
     78   5   AUTRYVIL   .122E+02   45.00  166.62    0.48    0.00    0.00    0.00    0.20 1107.56   14.34  451.26  597.77    0.00    0.03    0.00    6.58    0.00   14.34
     79   5   RAINS      .737E+01   55.00  246.89    0.14    0.00    0.00    0.00    0.20 1107.56   28.52  319.04  722.70    0.00    0.01    0.01   14.02    0.00   28.52
     80   5   NORFOLK    .574E+01   55.00  311.40    0.26    0.00    0.00    0.00    0.20 1107.56   33.23  338.35  700.25    0.00    0.02    0.01    9.46    0.00   33.23
     81   5   AUTRYVIL   .137E+02   35.00  166.62    0.38    0.00    0.00    0.00    0.20 1107.56    4.58  468.38  589.97    0.00    0.02    0.00    7.20    0.00    4.58
     82   5   RAINS      .386E+01   61.00  246.89    0.18    0.00    0.00    0.00    0.20 1107.56   62.52  382.93  620.69    0.07    0.04    0.47    1.06    0.46   62.52
     83   5   NORFOLK    .252E+01   61.00  311.40    0.29    0.00    0.00    0.00    0.20 1107.56   67.55  394.91  604.11    0.12    0.07    0.29    0.79    0.32   67.55
     84   5   AUTRYVIL   .950E+01   39.00  166.62    0.38    0.00    0.00    0.00    0.20 1107.56    8.76  533.43  516.82    0.01    0.05    0.02    0.59    0.25    8.76
     85   5   RAINS      .407E+01   66.00  246.89    0.20    0.00    0.00    0.00    0.20 1107.56   79.35  290.41  702.42    1.94    0.01    7.19    9.95    0.00   79.35
     86   5   NORFOLK    .707E+01   66.00  311.40    0.21    0.00    0.00    0.00    0.20 1107.56   88.87  311.23  671.95    1.73    0.01    2.56    5.93    0.00   88.87
     87   5   AUTRYVIL   .239E+02   45.00  166.62    0.30    0.00    0.00    0.00    0.20 1107.56   14.94  476.46  570.71    0.13    0.01    0.16    4.50    0.00   14.94
     88   6   RAINS      .396E+01   77.00  246.89    0.16    0.00  224.38    0.00    0.20 1137.73  194.77  232.67  677.75    2.30    4.08   16.91   25.17    9.72  194.77
     89   6   AUTRYVIL   .266E+01   67.00  166.62    0.26    0.00  232.22    0.00    0.20 1137.73  109.92  392.69  592.98    1.22    1.52    4.44   23.79    9.14  109.92
     90   6   RAINS      .848E+01   78.00  246.89    0.17    0.00    0.00    0.00    0.20 1137.73  213.30  218.43  673.44    3.56    1.04   21.09    9.72    2.32  213.30
     91   6   AUTRYVIL   .102E+02   67.00  166.62    0.27    0.00    0.00    0.00    0.20 1137.73  111.16  392.79  591.55    1.61    0.78    4.97    9.46    2.25  111.16
     92   6   RAINS      .182E+02   55.00  246.89    0.12    0.00    0.00    0.00    0.20 1137.73   38.49  330.58  730.80    0.00    0.01    0.01   14.15    0.00   38.49
     93   6   AUTRYVIL   .437E+01   35.00  166.62    0.27    0.00    0.00    0.00    0.20 1137.73    7.50  485.92  597.99    0.00    0.01    0.00    7.21    0.00    7.50
     94   6   RAINS      .701E+01   61.00  246.89    0.14    0.00    0.00    0.00    0.20 1137.73   74.34  393.50  627.19    0.05    0.05    0.38    1.05    0.45   74.34
     95   6   AUTRYVIL   .298E+01   39.00  166.62    0.31    0.00    0.00    0.00    0.20 1137.73   12.95  551.65  522.92    0.01    0.03    0.02    0.59    0.25   12.95
     96   6   RAINS      .999E+01   66.00  246.89    0.15    0.00    0.00    0.00    0.20 1137.73   92.89  296.21  711.26    1.54    0.01    6.93   10.01    0.00   92.89
     97   6   AUTRYVIL   .121E+02   45.00  166.62    0.29    0.00    0.00    0.00    0.20 1137.73   21.12  490.97  578.35    0.27    0.01    0.29    4.50    0.00   21.12
     98   7   RAINS      .898E+01   78.00  246.89    0.17    0.00    0.00    0.00    0.20 1107.56  195.19  213.61  666.91    3.53    1.03   20.64    9.66    2.31  195.19
     99   7   AUTRYVIL   .233E+02   67.00  166.62    0.27    0.00    0.00    0.00    0.20 1107.56   97.64  383.92  584.42    1.37    0.75    4.71    9.37    2.24   97.64
    100   7   ROANOKE    .685E+00   84.00  252.73    0.23    0.00  129.56    0.00    0.20 1107.56  330.71  151.98  594.98    3.94    5.25    9.24   11.57    3.57  330.71
    101   7   RAINS      .184E+01   73.00  246.89    0.18    0.00  135.94    0.00    0.20 1107.56  162.30  317.19  589.48    0.98    1.78    6.85   11.54    3.56  162.30
    102   7   AUTRYVIL   .563E+01   62.00  166.62    0.27    0.00  139.39    0.00    0.20 1107.56   77.52  473.98  509.51    0.43    0.83    1.03   11.09    3.43   77.52
    103   7   RAINS      .189E+01   73.82  246.89    0.16    0.00  258.03    0.00    0.20 1107.56  282.58   92.19  711.50    0.48    5.51    3.22   24.97   17.41  282.59
    104   7   AUTRYVIL   .517E+01   58.94  166.62    0.26    0.00  254.86    0.00    0.20 1107.56  234.78  227.57  611.46    0.43    4.32    0.92   23.13   16.16  234.79
    105   7   RAINS      .239E+01   66.00  246.89    0.15    0.00    0.00    0.00    0.20 1107.56   75.83  283.62  712.56    0.01    0.02    0.04   12.30    0.57   75.83
[...]
    201  13   RAINS      .525E+00   61.00  246.89    0.13    0.00    0.00    0.00    0.20 1219.09   87.44  449.65  635.74    0.06    0.04    0.47    1.29    0.66   87.44
    202  13   NORFOLK    .176E+01   61.00  311.40    0.30    0.00    0.00    0.00    0.20 1219.09   92.63  462.16  619.48    0.26    0.09    0.59    0.98    0.49   92.63
    203  13   AUTRYVIL   .210E+01   39.00  166.62    0.36    0.00    0.00    0.00    0.20 1219.09   16.72  618.15  530.46    0.02    0.05    0.04    0.74    0.38   16.72
    204  13   TREBLOC    .103E+01   80.00  325.12    0.31    0.00    0.00    0.00    0.20 1219.09  296.79  286.85  596.86    4.51    0.11    8.46    0.69    0.35  296.79
    205  13   ROANOKE    .206E+02   83.00  252.73    0.27    0.00    0.00    0.00    0.20 1219.09  356.36  166.77  666.21   12.39    0.01    8.30    2.85    0.00  356.37
    206  13   NORFOLK    .736E+01   66.00  311.40    0.42    0.00    0.00    0.00    0.20 1219.09  120.89  379.92  678.44    4.16    0.02    4.47    5.94    0.00  120.89
    207  13   AUTRYVIL   .796E+01   45.00  166.62    0.50    0.00    0.00    0.00    0.20 1219.09   26.23  561.95  580.49    0.41    0.01    0.34    4.55    0.00   26.23
    208  13   TREBLOC    .427E+01   83.00  325.12    0.52    0.00    0.00    0.00    0.20 1219.09  326.50  207.23  651.82   52.89    0.02   15.33    4.82    0.00  326.50
    209  14   NORFOLK    .346E+02   78.00  311.40    0.23    0.00    0.00    0.00    0.20 1166.96  226.42  241.49  665.67    2.32    1.77   10.57    9.72    2.32  226.41
    210  14   NORFOLK    .142E+02   73.00  311.40    0.24    0.00  131.85    0.00    0.20 1166.96  182.22  349.40  595.35    0.81    1.92    3.22   11.55    3.56  182.22
    211  14   RAINS      .103E+01   55.00  246.89    0.10    0.00    0.00    0.00    0.20 1166.96   35.91  359.94  730.57    0.00    0.01    0.01   14.24    0.00   35.91
    212  14   NORFOLK    .149E+02   55.00  311.40    0.23    0.00    0.00    0.00    0.20 1166.96   41.46  380.89  703.97    0.00    0.02    0.01    9.53    0.00   41.46
    213  14   NORFOLK    .114E+02   61.00  311.40    0.28    0.00    0.00    0.00    0.20 1166.96   76.95  431.28  615.87    0.12    0.10    0.35    0.79    0.32   76.95
    214  14   NORFOLK    .330E+02   66.00  311.40    0.33    0.00    0.00    0.00    0.20 1166.96  101.61  349.33  676.87    1.23    0.02    2.81    5.98    0.00  101.61
    215  15   NORFOLK    .139E+02   78.00  311.40    0.24    0.00    0.00    0.00    0.20 1219.09  254.66  261.76  668.01    4.88    1.75   14.28    9.70    2.32  254.66
    216  15   AUTRYVIL   .891E+01   67.00  166.62    0.30    0.00    0.00    0.00    0.20 1219.09  128.96  446.01  598.91    2.48    1.09    6.71    9.57    2.29  128.96
    217  15   TREBLOC    .740E+01   89.00  325.12    0.23    0.00    0.00    0.00    0.20 1219.09  442.62   98.12  652.03   25.15    2.78   30.98    9.71    2.32  442.66
    218  15   NORFOLK    .408E+01   73.00  311.40    0.24    0.00  133.60    0.00    0.20 1219.09  205.72  373.07  598.47    1.30    1.92    4.09   11.54    3.57  205.72
    219  15   AUTRYVIL   .259E+01   62.00  166.62    0.28    0.00  144.46    0.00    0.20 1219.09  102.12  541.10  525.22    0.57    0.86    1.37   11.36    3.51  102.12
    220  15   TREBLOC    .258E+01   84.00  325.12    0.26    0.00  146.05    0.00    0.20 1219.09  377.85  227.82  577.88    7.80    3.96   17.86   11.81    3.65  377.86
    221  15   RAINS      .141E+01   55.00  246.89    0.10    0.00    0.00    0.00    0.20 1219.09   48.55  395.14  732.30    0.00    0.01    0.01   14.22    0.00   48.55
    222  15   NORFOLK    .392E+01   55.00  311.40    0.30    0.00    0.00    0.00    0.20 1219.09   54.06  418.80  704.48    0.01    0.03    0.02    9.52    0.00   54.06
    223  15   AUTRYVIL   .241E+01   35.00  166.62    0.40    0.00    0.00    0.00    0.20 1219.09   10.11  556.41  602.46    0.00    0.02    0.00    7.34    0.00   10.11
    224  15   TREBLOC    .221E+01   77.00  325.12    0.30    0.00    0.00    0.00    0.20 1219.09  222.84  281.04  677.61    0.12    0.05    0.42    7.82    0.00  222.84
    225  15   RAINS      .480E+00   61.00  246.89    0.10    0.00    0.00    0.00    0.20 1219.09   87.45  449.46  635.88    0.04    0.03    0.33    1.29    0.66   87.45
    226  15   NORFOLK    .255E+01   61.00  311.40    0.36    0.00    0.00    0.00    0.20 1219.09   92.51  462.83  619.28    0.34    0.11    0.73    0.98    0.49   92.51
    227  15   AUTRYVIL   .205E+01   39.00  166.62    0.46    0.00    0.00    0.00    0.20 1219.09   16.70  618.56  530.40    0.03    0.05    0.04    0.75    0.38   16.70
    228  15   TREBLOC    .192E+01   80.00  325.12    0.35    0.00    0.00    0.00    0.20 1219.09  296.80  286.85  596.85    5.36    0.11    9.21    0.69    0.35  296.80
    229  15   NORFOLK    .992E+01   66.00  311.40    0.42    0.00    0.00    0.00    0.20 1219.09  120.89  379.84  678.51    4.28    0.02    4.55    5.94    0.00  120.89
    230  15   AUTRYVIL   .156E+02   45.00  166.62    0.40    0.00    0.00    0.00    0.20 1219.09   26.27  561.39  580.74    0.29    0.01    0.28    4.55    0.00   26.27
    231  15   TREBLOC    .556E+01   83.00  325.12    0.44    0.00    0.00    0.00    0.20 1219.09  326.42  206.99  652.14   45.83    0.02   15.15    4.83    0.00  326.43
    232  16   RAINS      .223E+00   77.00  246.89    0.14    0.00   38.20    0.00    0.20 1219.09  200.61  198.08  794.75    1.61    1.15   10.35    0.00    0.00  200.61
    233  16   NORFOLK    .376E+01   77.00  311.40    0.17    0.00   38.89    0.00    0.20 1219.09  206.37  188.54  803.15    2.13    0.96    6.13    0.00    0.00  206.38
    234  16   RAINS      .242E+01   78.00  246.89    0.11    0.00    0.00    0.00    0.20 1219.09  246.51  259.11  677.38    2.21    1.22   16.45    9.71    2.32  246.52
    235  16   NORFOLK    .154E+02   78.00  311.40    0.23    0.00    0.00    0.00    0.20 1219.09  254.72  261.51  668.12    3.88    1.72   13.22    9.70    2.32  254.72
    236  16   AUTRYVIL   .222E+01   67.00  166.62    0.29    0.00    0.00    0.00    0.20 1219.09  129.13  445.18  599.22    2.21    0.89    6.07    9.57    2.29  129.13
    237  16   NORFOLK    .409E+01   73.00  311.40    0.17    0.00  133.65    0.00    0.20 1219.09  205.83  372.36  598.82    0.82    1.76    2.90   11.54    3.57  205.83
    238  16   AUTRYVIL   .103E+01   62.00  166.62    0.24    0.00  144.54    0.00    0.20 1219.09  102.18  540.23  525.52    0.40    0.62    1.02   11.36    3.51  102.18
    239  16   RAINS      .493E+00   73.82  246.89    0.12    0.00  254.97    0.00    0.20 1219.09  336.88  127.35  730.55    0.31    6.16    2.69   25.32   17.65  336.89
    240  16   NORFOLK    .275E+01   73.82  311.40    0.21    0.00  254.17    0.00    0.20 1219.09  340.72  122.40  735.82    0.54    6.23    1.66   25.54   17.80  340.74
    241  16   AUTRYVIL   .488E+00   58.94  166.62    0.29    0.00  257.19    0.00    0.20 1219.09  274.92  271.14  635.87    0.40    5.35    1.41   24.10   16.81  274.93
    242  16   RAINS      .246E+01   55.00  246.89    0.10    0.00    0.00    0.00    0.20 1219.09   48.55  395.11  732.32    0.00    0.01    0.01   14.22    0.00   48.55
    243  16   NORFOLK    .433E+01   55.00  311.40    0.23    0.00    0.00    0.00    0.20 1219.09   54.37  416.59  705.11    0.00    0.02    0.01    9.52    0.00   54.37
    244  16   AUTRYVIL   .399E+00   35.00  166.62    0.31    0.00    0.00    0.00    0.20 1219.09   10.14  555.86  602.65    0.00    0.02    0.00    7.34    0.00   10.14
    245  16   RAINS      .924E+00   61.00  246.89    0.11    0.00    0.00    0.00    0.20 1219.09   87.44  449.45  635.91    0.05    0.03    0.40    1.29    0.66   87.44
    246  16   NORFOLK    .417E+01   61.00  311.40    0.31    0.00    0.00    0.00    0.20 1219.09   92.80  460.87  620.03    0.24    0.07    0.60    0.98    0.49   92.80
    247  16   AUTRYVIL   .582E+00   39.00  166.62    0.40    0.00    0.00    0.00    0.20 1219.09   16.71  618.23  530.52    0.02    0.05    0.04    0.74    0.38   16.71
    248  16   RAINS      .121E+01   66.00  246.89    0.11    0.00    0.00    0.00    0.20 1219.09  111.64  354.63  711.72    1.03    0.01    4.90   10.06    0.00  111.64
    249  16   NORFOLK    .987E+01   66.00  311.40    0.44    0.00    0.00    0.00    0.20 1219.09  120.84  380.02  678.49    4.02    0.02    4.52    5.94    0.00  120.84
    250  16   AUTRYVIL   .303E+01   45.00  166.62    0.50    0.00    0.00    0.00    0.20 1219.09   26.23  561.86  580.59    0.45    0.01    0.34    4.55    0.00   26.23
    251  17   JOHNS      .316E+01   83.00  133.10    0.15    0.00  219.86    0.00    0.20 1219.09  330.85  220.08  633.20    3.92    6.81   14.65   22.65    8.63  330.86
    252  17   NORFOLK    .595E+01   77.00  311.40    0.24    0.00  217.42    0.00    0.20 1219.09  233.52  277.01  673.63    3.99    4.80   14.03   25.42    9.84  233.52
    253  17   AUTRYVIL   .764E+01   67.00  166.62    0.26    0.00  235.70    0.00    0.20 1219.09  127.38  446.81  599.21    1.58    1.54    5.89   24.25    9.37  127.38
    254  17   TREBLOC    .564E+01   87.00  325.12    0.24    0.00  237.18    0.00    0.20 1219.09  383.75  144.99  660.85   18.58    8.46   33.11   25.23    9.77  383.78
    255  17   JOHNS      .123E+02   85.00  133.10    0.16    0.00    0.00    0.00    0.20 1219.09  372.60  172.35  642.10    6.16    2.36   16.05    8.97    2.13  372.62
    256  17   RAINS      .381E+01   78.00  246.89    0.14    0.00    0.00    0.00    0.20 1219.09  246.47  259.29  677.29    3.41    1.23   20.72    9.71    2.32  246.47
    257  17   NORFOLK    .192E+02   78.00  311.40    0.24    0.00    0.00    0.00    0.20 1219.09  254.66  261.73  668.03    4.99    1.74   14.48    9.70    2.32  254.66
    258  17   AUTRYVIL   .234E+02   67.00  166.62    0.24    0.00    0.00    0.00    0.20 1219.09  129.19  444.89  599.32    1.55    0.82    5.39    9.57    2.29  129.19
    259  17   TREBLOC    .132E+02   89.00  325.12    0.31    0.00    0.00    0.00    0.20 1219.09  442.59   98.27  651.91   35.65    2.69   33.88    9.71    2.32  442.62
    260  17   JOHNSTON   .235E+01   77.00  220.98    0.31    0.00    0.00    0.00    0.20 1219.09  209.34  236.22  740.73    0.03    0.20    0.34   19.70    0.00  209.35
    261  17   JOHNS      .235E+01   70.00  133.10    0.17    0.00    0.00    0.00    0.20 1219.09  147.78  360.74  668.74    0.02    0.02    0.04    7.68    0.00  147.78
    262  17   RAINS      .262E+01   55.00  246.89    0.14    0.00    0.00    0.00    0.20 1219.09   48.52  395.25  732.30    0.00    0.01    0.02   14.22    0.00   48.52
    263  17   NORFOLK    .518E+01   55.00  311.40    0.29    0.00    0.00    0.00    0.20 1219.09   54.27  417.25  704.94    0.01    0.03    0.02    9.52    0.00   54.27
    264  17   AUTRYVIL   .121E+02   35.00  166.62    0.31    0.00    0.00    0.00    0.20 1219.09   10.14  555.85  602.66    0.00    0.02    0.00    7.34    0.00   10.14
    265  17   TREBLOC    .337E+01   77.00  325.12    0.35    0.00    0.00    0.00    0.20 1219.09  222.82  281.10  677.58    0.15    0.05    0.51    7.81    0.00  222.82
    266  17   JOHNSTON   .128E+01   80.00  220.98    0.52    0.00    0.00    0.00    0.20 1219.09  283.31  245.89  654.59    0.89    0.67    7.38    2.44    1.26  283.31
    267  17   JOHNS      .247E+01   74.00  133.10    0.21    0.00    0.00    0.00    0.20 1219.09  203.93  359.49  613.67    0.69    0.07    1.60    0.77    0.39  203.93
    268  17   RAINS      .152E+01   61.00  246.89    0.14    0.00    0.00    0.00    0.20 1219.09   87.43  449.56  635.85    0.08    0.04    0.59    1.29    0.66   87.43
    269  17   NORFOLK    .448E+01   61.00  311.40    0.31    0.00    0.00    0.00    0.20 1219.09   92.60  462.23  619.52    0.30    0.10    0.67    0.98    0.49   92.60
    270  17   AUTRYVIL   .117E+02   39.00  166.62    0.35    0.00    0.00    0.00    0.20 1219.09   16.72  617.94  530.59    0.02    0.04    0.04    0.74    0.38   16.72
    271  17   TREBLOC    .313E+01   80.00  325.12    0.31    0.00    0.00    0.00    0.20 1219.09  296.80  286.77  596.92    4.98    0.11    8.95    0.69    0.35  296.80
    272  17   JOHNSTON   .133E+02   83.00  220.98    0.29    0.00    0.00    0.00    0.20 1219.09  314.41  148.25  729.05   11.82    0.12   34.83   14.59    0.00  314.42
    273  17   JOHNS      .111E+02   77.00  133.10    0.23    0.00    0.00    0.00    0.20 1219.09  235.08  290.44  655.02    5.90    0.01    6.09    4.95    0.00  235.08
    274  17   NORFOLK    .135E+02   66.00  311.40    0.35    0.00    0.00    0.00    0.20 1219.09  121.06  378.89  678.86    3.60    0.02    4.14    5.94    0.00  121.06
    275  17   AUTRYVIL   .230E+02   45.00  166.62    0.44    0.00    0.00    0.00    0.20 1219.09   26.25  561.52  580.71    0.32    0.01    0.31    4.55    0.00   26.25
    276  17   TREBLOC    .108E+02   83.00  325.12    0.42    0.00    0.00    0.00    0.20 1219.09  326.42  206.93  652.19   43.77    0.02   15.14    4.83    0.00  326.43



                AVE MONTHLY BASIN VALUES
                   SNOW                      WATER               SED
  MON     RAIN     FALL   SURF Q    LAT Q    YIELD       ET    YIELD      PET
          (MM)     (MM)     (MM)     (MM)     (MM)     (MM)   (T/HA)     (MM)
    1    95.49    20.49     9.02     2.14    44.23    23.79     0.40    38.13
    2    77.61     4.86    10.09     2.06    49.36    27.22     0.49    44.95
    3   108.41     0.57    11.61     2.39    59.51    44.13     0.56    82.11
    4   106.12     0.00    14.03     2.13    61.65    52.84     0.71   107.10
    5   104.62     0.00    10.81     2.02    56.55    69.01     0.35   125.58
    6   101.98     0.00     9.06     1.63    46.38    89.59     0.14   141.47
    7    82.00     0.00     4.70     0.98    28.00   100.12     0.04   167.84
    8    93.48     0.00     8.92     1.30    21.49    78.09     0.07   172.34
    9   138.14     0.00    27.70     2.21    39.87    55.94     0.23   122.87
   10    69.17     0.00     6.50     1.28    22.53    44.10     0.07    96.16
   11    85.77     0.00    12.70     1.61    29.21    31.41     0.13    63.64
   12    87.79     9.36     9.05     2.03    33.03    23.03     0.12    40.46

     AVE ANNUAL BASIN STRESS DAYS
               WATER STRESS DAYS =     2.83
               TEMPERATURE STRESS DAYS =    25.77
               NITROGEN STRESS DAYS =    63.33
               PHOSPHORUS STRESS DAYS =     0.07
               AERATION STRESS DAYS =     0.00
1
    SWAT Dec 23 2016    VER 2016/Rev 664                                            

    General Input/Output section (file.cio):                                        
    1/28/2018 12:00:00 AM ARCGIS-SWAT interface AV                                  
                                                                                    
         AVE ANNUAL BASIN VALUES

              PRECIP =   1151.2 MM
              SNOW FALL =   35.32 MM
              SNOW MELT =    35.09 MM
              SUBLIMATION =     0.24 MM
              SURFACE RUNOFF Q =   134.27 MM
              LATERAL SOIL Q =   21.80 MM
              TILE Q =     0.00 MM
              GROUNDWATER (SHAL AQ) Q =   317.23 MM
              GROUNDWATER (DEEP AQ) Q =    18.87 MM
              REVAP (SHAL AQ => SOIL/PLANTS) =   24.06 MM
              DEEP AQ RECHARGE =    17.95 MM
              TOTAL AQ RECHARGE =  358.99 MM
              TOTAL WATER YLD =   492.18 MM
              PERCOLATION OUT OF SOIL =  356.31 MM
              ET =    639.5 MM
              PET =   1203.0MM
              TRANSMISSION LOSSES =     0.00 MM
              SEPTIC INFLOW =       0.00 MM
              TOTAL SEDIMENT LOADING =      3.32 T/HA
              TILE FROM IMPOUNDED WATER =     0.000 (MM)
              EVAPORATION FROM IMPOUNDED WATER =     0.000 (MM)
              SEEPAGE INTO SOIL FROM IMPOUNDED WATER =    0.000 (MM)
              OVERFLOW FROM IMPOUNDED WATER =    0.000 (MM)
1
    SWAT Dec 23 2016    VER 2016/Rev 664                                            

    General Input/Output section (file.cio):                                        
    1/28/2018 12:00:00 AM ARCGIS-SWAT interface AV                                  
                                                                                    
              AVE ANNUAL BASIN VALUES


              NUTRIENTS
                   ORGANIC N =     5.482 (KG/HA)
                   ORGANIC P =     0.709 (KG/HA)
                   NO3 YIELD (SQ) =     0.672 (KG/HA)
                   NO3 YIELD (LAT) =    0.178 (KG/HA)
                   NO3 YIELD (TILE) =    0.000 (KG/HA)
                   SOLP YIELD (TILE) =    0.000(KG/HA)
                   SOLP YIELD (SURF INLET RISER) =    0.000 (KG/HA)
                   SOL P YIELD =    0.038 (KG/HA)
                   NO3 LEACHED =    13.732 (KG/HA)
                   P LEACHED =     0.137 (KG/HA)
                   N UPTAKE =    99.423 (KG/HA)
                   P UPTAKE =   15.283 (KG/HA)
                   NO3 YIELD (GWQ) =     0.139 (KG/HA)
                   ACTIVE TO SOLUTION P FLOW =       -10.032 (KG/HA)
                   ACTIVE TO STABLE P FLOW =        -9.399 (KG/HA)
                   N FERTILIZER APPLIED =    25.012 (KG/HA)
                   P FERTILIZER APPLIED =     0.000 (KG/HA)
                   N FIXATION =    56.312 (KG/HA)
                   DENITRIFICATION =     0.003 (KG/HA)
                   HUMUS MIN ON ACTIVE ORG N =     5.671 (KG/HA)
                   ACTIVE TO STABLE ORG N =     0.010 (KG/HA)
                   HUMUS MIN ON ACTIVE ORG P =    0.976 (KG/HA)
                   MIN FROM FRESH ORG N =   35.001 (KG/HA)
                   MIN FROM FRESH ORG P =    5.788 (KG/HA)
                   NO3 IN RAINFALL =     0.000 (KG/HA)
                   INITIAL NO3 IN SOIL =      69.304 (KG/HA)
                   FINAL NO3 IN SOIL =        23.685 (KG/HA)
                   INITIAL ORG N IN SOIL =    5487.372 (KG/HA)
                   FINAL ORG N IN SOIL =      5448.999 (KG/HA)
                   INITIAL MIN P IN SOIL =    4209.346 (KG/HA)
                   FINAL MIN P IN SOIL =      4010.897 (KG/HA)
                   INITIAL ORG P IN SOIL =     672.204 (KG/HA)
                   FINAL ORG P IN SOIL =     669.520 (KG/HA)
                   NO3 IN FERT =    25.012 (KG/HA)
                   AMMONIA IN FERT =     0.000 (KG/HA)
                   ORG N IN FERT =     0.000 (KG/HA)
                   MINERAL P IN FERT =     0.000 (KG/HA)
                   ORG P IN FERT =     0.000 (KG/HA)
                   N REMOVED IN YIELD =    62.037 (KG/HA)
                   P REMOVED IN YIELD =     9.294 (KG/HA)
                   AMMONIA VOLATILIZATION =     0.000 (KG/HA)
                   AMMONIA NITRIFICATION =      0.000 (KG/HA)
                   NO3 EVAP-LAYER 2 TO 1 =    4.699

                   DIE-GRO P Q =           0.0 (No/M2)
                   DIE-GRO LP Q =           0.0 (No/M2)
                   DIE-GRO P SED =          0.0 (No/M2)
                   DIE-GRO LP SED =          0.0 (No/M2)
                   BACT P RUNOFF =          0.0 (No/M2)
                   BACT LP RUNOFF =          0.0 (No/M2)
                   BACT P SEDIMENT =          0.0 (No/M2)
                   BACT LP SEDIMENT =          0.0 (No/M2)
                   BACT P INCORP =          0.0 (No/M2)
                   BACT LP INCORP =          0.0 (No/M2)

                   NITRATE SEPTIC =         0.00 (kg/ha)
                   AMMONIA SEPTIC =         0.00 (kg/ha)
                   ORG N SEPTIC =         0.00 (kg/ha)
                   FRESH ORGN SEPTIC =         0.00 (kg/ha)
                   ORG P SEPTIC =         0.00 (kg/ha)
                   FRESH ORGP SEPTIC =         0.00 (kg/ha)
                   SOL P SEPTIC =         0.00 (kg/ha)
                   BOD SEPTIC =         0.00 (kg/ha)
