1
    SWAT Dec 23 2016    VER 2016/Rev 664                                                                 0/ 0/   0      0: 0: 0

    General Input/Output section (file.cio):                                        
    1/28/2018 12:00:00 AM ARCGIS-SWAT interface AV                                  
                                                                                    


       SUB      GIS  MON   AREAkm2  PRECIPmm SNOMELTmm     PETmm      ETmm      SWmm    PERCmm    SURQmm    GW_Qmm    WYLDmm  SYLDt/ha ORGNkg/ha ORGPkg/haNSURQkg/ha SOLPkg/ha SEDPkg/ha LAT Q(mm)LATNO3kg/hGWNO3kg/haCHOLAmic/LCBODU mg/L DOXQ mg/L TNO3kg/ha   QTILEmm TVAPkg/ha
BIGSUB   1        0    1.15751E+03    75.500    23.511    31.804    22.810   167.572    44.635     4.194    53.468    63.127     0.050     0.098     0.013     0.011     0.001     0.016     1.037     0.007     0.007 .00000E+00 0.000E+00 0.000E+00 0.000E+00 0.000E+00 0.000E+00
BIGSUB   2        0    1.19174E+03    75.500    23.511    31.802    22.237   241.927    41.841     4.303    50.101    61.611     0.075     0.124     0.017     0.012     0.001     0.021     3.005     0.019     0.006 .00000E+00 0.000E+00 0.000E+00 0.000E+00 0.000E+00 0.000E+00
BIGSUB   3        0    1.62000E+02    75.500    23.511    31.833    21.007   212.900    45.648     3.314    59.728    70.005     0.026     0.063     0.009     0.012     0.001     0.011     2.047     0.020     0.008 .00000E+00 0.000E+00 0.000E+00 0.000E+00 0.000E+00 0.000E+00
BIGSUB   4        0    1.17781E+03    75.500    23.511    31.859    21.683   200.808    44.632     3.960    57.571    68.055     0.154     0.151     0.022     0.011     0.001     0.030     1.802     0.018     0.009 .00000E+00 0.000E+00 0.000E+00 0.000E+00 0.000E+00 0.000E+00
BIGSUB   5        0    1.18044E+03    75.500    23.511    31.825    21.267   217.931    45.153     3.671    59.257    69.602     0.030     0.092     0.012     0.013     0.001     0.014     1.848     0.022     0.009 .00000E+00 0.000E+00 0.000E+00 0.000E+00 0.000E+00 0.000E+00
BIGSUB   6        0    1.79869E+02    68.800     0.000    32.144    21.737   214.677    43.949     1.943    57.378    64.939     0.023     0.114     0.015     0.009     0.001     0.013     0.626     0.008     0.007 .00000E+00 0.000E+00 0.000E+00 0.000E+00 0.000E+00 0.000E+00
BIGSUB   7        0    1.10309E+03    75.500    23.510    31.889    21.299   195.065    46.767     3.372    62.061    71.659     0.085     0.129     0.018     0.010     0.001     0.022     1.210     0.013     0.013 .00000E+00 0.000E+00 0.000E+00 0.000E+00 0.000E+00 0.000E+00
BIGSUB   8        0    1.11059E+03    68.800     0.000    32.149    22.637   208.201    36.644     7.546    50.468    62.994     0.211     0.239     0.036     0.022     0.002     0.055     0.882     0.010     0.006 .00000E+00 0.000E+00 0.000E+00 0.000E+00 0.000E+00 0.000E+00
BIGSUB   9        0    1.55778E+02    61.700     1.200    33.942    23.927   274.659    30.352     3.991    38.306    48.288     0.196     0.212     0.031     0.014     0.001     0.047     1.973     0.014     0.006 .00000E+00 0.000E+00 0.000E+00 0.000E+00 0.000E+00 0.000E+00
BIGSUB  10        0    1.45121E+02    61.700     1.200    33.940    24.293   269.394    28.008     6.155    35.718    46.794     0.271     0.309     0.046     0.025     0.002     0.071     1.317     0.008     0.004 .00000E+00 0.000E+00 0.000E+00 0.000E+00 0.000E+00 0.000E+00
BIGSUB  11        0    1.64601E+02    68.800     0.000    32.171    21.839   196.167    42.359     2.616    57.080    65.934     0.094     0.148     0.020     0.013     0.001     0.024     1.280     0.012     0.008 .00000E+00 0.000E+00 0.000E+00 0.000E+00 0.000E+00 0.000E+00
BIGSUB  12        0    1.10255E+03    67.800    19.476    32.129    21.334   234.077    42.007     1.898    55.609    64.177     0.020     0.042     0.006     0.005     0.001     0.008     1.610     0.015     0.010 .00000E+00 0.000E+00 0.000E+00 0.000E+00 0.000E+00 0.000E+00
BIGSUB  13        0    1.94719E+02    61.700     1.200    33.952    24.058   260.854    27.634     7.056    36.489    48.098     0.557     0.462     0.069     0.032     0.002     0.094     0.960     0.008     0.004 .00000E+00 0.000E+00 0.000E+00 0.000E+00 0.000E+00 0.000E+00
BIGSUB  14        0    1.10900E+03    67.800    19.476    32.154    22.940   313.277    38.291     2.568    47.423    56.506     0.021     0.059     0.008     0.006     0.001     0.011     2.206     0.017     0.007 .00000E+00 0.000E+00 0.000E+00 0.000E+00 0.000E+00 0.000E+00
BIGSUB  15        0    1.87497E+02    61.700     1.200    33.981    23.267   263.483    30.792     4.442    40.610    50.881     0.359     0.293     0.043     0.022     0.001     0.048     1.593     0.014     0.006 .00000E+00 0.000E+00 0.000E+00 0.000E+00 0.000E+00 0.000E+00
BIGSUB  16        0    1.59907E+02    61.700     1.200    33.987    23.776   286.066    31.440     3.660    39.404    48.731     0.047     0.111     0.015     0.017     0.001     0.019     1.511     0.014     0.005 .00000E+00 0.000E+00 0.000E+00 0.000E+00 0.000E+00 0.000E+00
BIGSUB  17        0    1.21866E+03    61.700     1.200    34.000    23.141   228.899    30.704     5.387    40.162    50.749     0.388     0.537     0.079     0.024     0.002     0.068     1.103     0.010     0.006 .00000E+00 0.000E+00 0.000E+00 0.000E+00 0.000E+00 0.000E+00
BIGSUB   1        0    2.15751E+03    91.100    13.600    33.450    24.355   160.787    64.035     8.555    44.667    58.459     0.112     0.271     0.037     0.010     0.003     0.050     1.616     0.011     0.011 .00000E+00 0.000E+00 0.000E+00 0.000E+00 0.000E+00 0.000E+00
BIGSUB   2        0    2.19174E+03    91.100    13.600    33.447    23.791   233.196    63.491     8.325    42.634    59.511     0.177     0.321     0.042     0.011     0.003     0.061     5.110     0.031     0.010 .00000E+00 0.000E+00 0.000E+00 0.000E+00 0.000E+00 0.000E+00
BIGSUB   3        0    2.62000E+02    91.100    13.600    33.459    21.842   205.920    67.210     6.169    47.095    60.805     0.061     0.178     0.023     0.011     0.002     0.034     3.563     0.036     0.016 .00000E+00 0.000E+00 0.000E+00 0.000E+00 0.000E+00 0.000E+00
BIGSUB   4        0    2.17781E+03    91.100    13.600    33.476    22.673   193.205    66.129     7.455    45.886    60.261     0.328     0.373     0.051     0.010     0.002     0.080     3.087     0.031     0.016 .00000E+00 0.000E+00 0.000E+00 0.000E+00 0.000E+00 0.000E+00
BIGSUB   5        0    2.18044E+03    91.100    13.600    33.453    22.173   210.899    66.348     7.249    46.805    61.177     0.070     0.265     0.034     0.012     0.002     0.045     3.210     0.039     0.018 .00000E+00 0.000E+00 0.000E+00 0.000E+00 0.000E+00 0.000E+00
BIGSUB   6        0    2.79869E+02    93.700    13.700    37.464    24.596   209.146    67.904     5.802    44.783    55.725     0.089     0.521     0.069     0.008     0.002     0.063     1.131     0.014     0.014 .00000E+00 0.000E+00 0.000E+00 0.000E+00 0.000E+00 0.000E+00
BIGSUB   7        0    2.10309E+03    91.100    13.600    33.490    22.103   188.760    67.236     6.533    48.319    61.029     0.180     0.348     0.046     0.009     0.002     0.060     2.119     0.024     0.022 .00000E+00 0.000E+00 0.000E+00 0.000E+00 0.000E+00 0.000E+00
BIGSUB   8        0    2.11059E+03    93.700    13.700    37.467    25.111   200.315    59.360    15.922    40.040    60.847     0.548     0.764     0.108     0.021     0.004     0.180     1.572     0.019     0.012 .00000E+00 0.000E+00 0.000E+00 0.000E+00 0.000E+00 0.000E+00
BIGSUB   9        0    2.55778E+02    92.500     0.000    36.793    24.811   264.295    60.941    13.431    31.898    52.667     0.530     0.790     0.111     0.016     0.004     0.177     4.158     0.029     0.008 .00000E+00 0.000E+00 0.000E+00 0.000E+00 0.000E+00 0.000E+00
BIGSUB  10        0    2.45121E+02    92.500     0.000    36.790    25.235   258.013    57.921    18.473    29.770    53.865     0.687     1.015     0.144     0.028     0.005     0.240     2.757     0.017     0.005 .00000E+00 0.000E+00 0.000E+00 0.000E+00 0.000E+00 0.000E+00
BIGSUB  11        0    2.64601E+02    93.700    13.700    37.482    24.130   190.367    66.604     6.787    43.953    57.008     0.264     0.583     0.077     0.012     0.002     0.096     2.297     0.023     0.016 .00000E+00 0.000E+00 0.000E+00 0.000E+00 0.000E+00 0.000E+00
BIGSUB  12        0    2.10255E+03    90.500     0.000    38.988    24.657   226.383    64.908     6.183    41.262    54.355     0.109     0.262     0.035     0.009     0.002     0.055     2.896     0.026     0.014 .00000E+00 0.000E+00 0.000E+00 0.000E+00 0.000E+00 0.000E+00
BIGSUB  13        0    2.94719E+02    92.500     0.000    36.798    24.909   249.554    56.960    20.431    29.819    55.108     1.243     1.361     0.195     0.033     0.005     0.300     1.999     0.017     0.007 .00000E+00 0.000E+00 0.000E+00 0.000E+00 0.000E+00 0.000E+00
BIGSUB  14        0    2.10900E+03    90.500     0.000    39.005    26.868   302.969    60.811    10.382    36.917    54.639     0.133     0.443     0.059     0.016     0.003     0.087     3.887     0.028     0.009 .00000E+00 0.000E+00 0.000E+00 0.000E+00 0.000E+00 0.000E+00
BIGSUB  15        0    2.87497E+02    92.500     0.000    36.818    24.008   253.516    61.486    14.089    32.830    53.594     0.795     0.931     0.130     0.024     0.003     0.168     3.336     0.030     0.010 .00000E+00 0.000E+00 0.000E+00 0.000E+00 0.000E+00 0.000E+00
BIGSUB  16        0    2.59907E+02    92.500     0.000    36.824    24.740   276.224    62.112    12.812    32.796    52.103     0.205     0.519     0.070     0.021     0.004     0.098     3.207     0.028     0.009 .00000E+00 0.000E+00 0.000E+00 0.000E+00 0.000E+00 0.000E+00
BIGSUB  17        0    2.21866E+03    92.500     0.000    36.829    23.972   219.720    59.694    16.103    32.758    54.420     0.825     1.516     0.215     0.026     0.004     0.217     2.318     0.022     0.011 .00000E+00 0.000E+00 0.000E+00 0.000E+00 0.000E+00 0.000E+00
BIGSUB   1        0    3.15751E+03    93.500     0.000    90.208    53.348   164.694    30.917     4.204    55.441    64.566     0.102     0.181     0.024     0.018     0.001     0.037     1.140     0.005     0.015 .00000E+00 0.000E+00 0.000E+00 0.000E+00 0.000E+00 0.000E+00
BIGSUB   2        0    3.19174E+03    93.500     0.000    90.208    52.337   237.059    29.997     4.178    53.406    64.207     0.128     0.185     0.024     0.022     0.001     0.038     3.019     0.015     0.014 .00000E+00 0.000E+00 0.000E+00 0.000E+00 0.000E+00 0.000E+00
BIGSUB   3        0    3.62000E+02    93.500     0.000    90.237    47.838   209.107    36.615     3.597    58.207    68.050     0.039     0.093     0.012     0.020     0.001     0.019     2.130     0.018     0.025 .00000E+00 0.000E+00 0.000E+00 0.000E+00 0.000E+00 0.000E+00
BIGSUB   4        0    3.17781E+03    93.500     0.000    90.257    49.545   196.504    34.442     4.231    56.910    67.010     0.252     0.203     0.028     0.019     0.001     0.047     1.894     0.015     0.024 .00000E+00 0.000E+00 0.000E+00 0.000E+00 0.000E+00 0.000E+00
BIGSUB   5        0    3.18044E+03    93.500     0.000    90.231    48.593   214.145    35.431     4.160    57.436    67.565     0.046     0.135     0.018     0.023     0.001     0.024     1.918     0.018     0.027 .00000E+00 0.000E+00 0.000E+00 0.000E+00 0.000E+00 0.000E+00
BIGSUB   6        0    3.79869E+02    89.500     0.000    94.655    51.056   213.174    31.848     1.869    57.339    63.990     0.030     0.142     0.018     0.014     0.001     0.017     0.651     0.007     0.022 .00000E+00 0.000E+00 0.000E+00 0.000E+00 0.000E+00 0.000E+00
BIGSUB   7        0    3.10309E+03    93.500     0.000    90.284    48.314   191.852    37.085     3.626    59.115    68.227     0.147     0.189     0.025     0.017     0.001     0.035     1.293     0.012     0.033 .00000E+00 0.000E+00 0.000E+00 0.000E+00 0.000E+00 0.000E+00
BIGSUB   8        0    3.11059E+03    89.500     0.000    94.660    51.068   203.270    24.366     9.971    47.709    61.975     0.344     0.352     0.049     0.038     0.003     0.087     0.868     0.008     0.019 .00000E+00 0.000E+00 0.000E+00 0.000E+00 0.000E+00 0.000E+00
BIGSUB   9        0    3.55778E+02    95.100     0.000    94.460    52.960   269.503    25.092     9.282    44.872    59.726     0.562     0.572     0.078     0.037     0.003     0.133     2.292     0.013     0.015 .00000E+00 0.000E+00 0.000E+00 0.000E+00 0.000E+00 0.000E+00
BIGSUB  10        0    3.45121E+02    95.100     0.000    94.459    53.959   262.398    21.141    13.649    41.434    59.577     0.720     0.742     0.102     0.057     0.004     0.181     1.524     0.007     0.009 .00000E+00 0.000E+00 0.000E+00 0.000E+00 0.000E+00 0.000E+00
BIGSUB  11        0    3.64601E+02    89.500     0.000    94.680    49.597   194.114    31.875     2.880    55.930    64.192     0.153     0.197     0.026     0.021     0.001     0.036     1.302     0.011     0.027 .00000E+00 0.000E+00 0.000E+00 0.000E+00 0.000E+00 0.000E+00
BIGSUB  12        0    3.10255E+03    90.900     0.000    99.608    51.698   230.584    30.137     3.189    54.400    63.251     0.060     0.124     0.016     0.018     0.001     0.026     1.564     0.011     0.023 .00000E+00 0.000E+00 0.000E+00 0.000E+00 0.000E+00 0.000E+00
BIGSUB  13        0    3.94719E+02    95.100     0.000    94.470    52.910   253.753    21.213    15.141    40.995    60.238     1.370     0.973     0.134     0.064     0.003     0.223     1.144     0.008     0.013 .00000E+00 0.000E+00 0.000E+00 0.000E+00 0.000E+00 0.000E+00
BIGSUB  14        0    3.10900E+03    90.900     0.000    99.630    56.605   306.928    22.795     5.275    48.547    59.401     0.060     0.201     0.026     0.029     0.002     0.040     2.027     0.011     0.014 .00000E+00 0.000E+00 0.000E+00 0.000E+00 0.000E+00 0.000E+00
BIGSUB  15        0    3.87497E+02    95.100     0.000    94.492    50.701   258.842    27.239     9.619    45.956    60.914     0.899     0.658     0.088     0.047     0.002     0.123     1.911     0.013     0.017 .00000E+00 0.000E+00 0.000E+00 0.000E+00 0.000E+00 0.000E+00
BIGSUB  16        0    3.59907E+02    95.100     0.000    94.496    53.124   281.709    25.745     8.694    46.152    59.976     0.173     0.366     0.048     0.046     0.003     0.071     1.741     0.011     0.015 .00000E+00 0.000E+00 0.000E+00 0.000E+00 0.000E+00 0.000E+00
BIGSUB  17        0    3.21866E+03    95.100     0.000    94.509    51.152   224.585    25.832    11.608    45.136    61.393     0.957     1.150     0.158     0.054     0.003     0.169     1.315     0.010     0.019 .00000E+00 0.000E+00 0.000E+00 0.000E+00 0.000E+00 0.000E+00
BIGSUB   1        0    4.15751E+03   151.700     0.000    99.316    54.280   160.975    61.718    35.722    26.058    65.903     1.052     1.744     0.248     0.010     0.013     0.392     0.948     0.004     0.004 .00000E+00 0.000E+00 0.000E+00 0.000E+00 0.000E+00 0.000E+00
BIGSUB   2        0    4.19174E+03   151.700     0.000    99.312    53.445   234.239    58.283    37.510    25.156    69.792     1.624     2.023     0.269     0.011     0.013     0.447     4.092     0.021     0.004 .00000E+00 0.000E+00 0.000E+00 0.000E+00 0.000E+00 0.000E+00
BIGSUB   3        0    4.62000E+02   151.700     0.000    99.308    48.297   206.262    73.801    28.418    30.030    65.226     0.764     1.339     0.174     0.012     0.011     0.318     3.311     0.028     0.009 .00000E+00 0.000E+00 0.000E+00 0.000E+00 0.000E+00 0.000E+00
BIGSUB   4        0    4.17781E+03   151.700     0.000    99.315    49.935   194.418    68.263    32.058    28.574    66.714     2.200     2.136     0.283     0.011     0.011     0.508     2.735     0.022     0.008 .00000E+00 0.000E+00 0.000E+00 0.000E+00 0.000E+00 0.000E+00
BIGSUB   5        0    4.18044E+03   151.700     0.000    99.305    48.963   211.284    71.132    30.251    28.944    65.527     0.761     1.760     0.225     0.013     0.009     0.364     2.924     0.027     0.010 .00000E+00 0.000E+00 0.000E+00 0.000E+00 0.000E+00 0.000E+00
BIGSUB   6        0    4.79869E+02   142.800     0.000    99.701    49.743   210.093    66.042    28.252    28.602    61.164     0.418     1.651     0.213     0.007     0.011     0.240     0.862     0.008     0.007 .00000E+00 0.000E+00 0.000E+00 0.000E+00 0.000E+00 0.000E+00
BIGSUB   7        0    4.10309E+03   151.700     0.000    99.315    48.593   189.078    73.660    29.401    30.073    64.966     1.222     2.143     0.274     0.090     0.009     0.415     1.963     0.023     0.012 .00000E+00 0.000E+00 0.000E+00 0.000E+00 0.000E+00 0.000E+00
BIGSUB   8        0    4.11059E+03   142.800     0.000    99.701    48.241   204.482    49.330    42.007    21.232    67.399     1.187     1.511     0.201     0.021     0.010     0.377     1.302     0.012     0.006 .00000E+00 0.000E+00 0.000E+00 0.000E+00 0.000E+00 0.000E+00
BIGSUB   9        0    4.55778E+02   119.400     0.000    96.543    48.364   270.030    35.175    32.175    24.543    61.951     2.649     2.669     0.356     0.009     0.008     0.637     2.493     0.038     0.005 .00000E+00 0.000E+00 0.000E+00 0.000E+00 0.000E+00 0.000E+00
BIGSUB  10        0    4.45121E+02   119.400     0.000    96.539    48.778   265.220    28.415    37.100    21.222    62.436     2.485     2.549     0.342     0.032     0.009     0.635     1.632     0.018     0.003 .00000E+00 0.000E+00 0.000E+00 0.000E+00 0.000E+00 0.000E+00
BIGSUB  11        0    4.64601E+02   142.800     0.000    99.705    47.726   191.951    66.179    27.957    28.178    61.569     0.785     1.659     0.212     0.009     0.009     0.308     2.028     0.014     0.009 .00000E+00 0.000E+00 0.000E+00 0.000E+00 0.000E+00 0.000E+00
BIGSUB  12        0    4.10255E+03   127.800     0.000    96.491    47.279   229.349    55.446    23.517    27.058    55.923     1.032     1.548     0.204     0.005     0.007     0.372     1.957     0.030     0.007 .00000E+00 0.000E+00 0.000E+00 0.000E+00 0.000E+00 0.000E+00
BIGSUB  13        0    4.94719E+02   119.400     0.000    96.541    47.401   257.086    28.601    38.099    20.795    62.629     4.275     2.938     0.391     0.018     0.008     0.715     1.264     0.008     0.005 .00000E+00 0.000E+00 0.000E+00 0.000E+00 0.000E+00 0.000E+00
BIGSUB  14        0    4.10900E+03   127.800     0.000    96.494    50.975   307.900    40.202    29.084    22.269    56.792     0.731     1.734     0.224     0.009     0.008     0.370     2.506     0.044     0.003 .00000E+00 0.000E+00 0.000E+00 0.000E+00 0.000E+00 0.000E+00
BIGSUB  15        0    4.87497E+02   119.400     0.000    96.549    46.353   259.284    39.294    30.458    26.032    61.548     3.275     2.447     0.322     0.017     0.007     0.530     2.195     0.028     0.006 .00000E+00 0.000E+00 0.000E+00 0.000E+00 0.000E+00 0.000E+00
BIGSUB  16        0    4.59907E+02   119.400     0.000    96.553    48.615   280.998    37.504    31.030    25.404    61.127     1.216     2.032     0.266     0.011     0.009     0.427     1.866     0.022     0.005 .00000E+00 0.000E+00 0.000E+00 0.000E+00 0.000E+00 0.000E+00
BIGSUB  17        0    4.21866E+03   119.400     0.000    96.550    46.238   224.698    37.983    32.921    24.658    61.861     3.233     3.594     0.480     0.013     0.009     0.625     1.500     0.010     0.006 .00000E+00 0.000E+00 0.000E+00 0.000E+00 0.000E+00 0.000E+00
BIGSUB   1        0    5.15751E+03    69.400     0.000   122.097    67.833   154.892     4.796     4.347    36.123    44.776     0.051     0.118     0.016     0.749     0.001     0.025     1.314     0.011     0.009 .00000E+00 0.000E+00 0.000E+00 0.000E+00 0.000E+00 0.000E+00
BIGSUB   2        0    5.19174E+03    69.400     0.000   122.092    67.097   227.404     5.385     2.635    34.691    42.588     0.059     0.085     0.011     0.582     0.001     0.019     2.402     0.023     0.009 .00000E+00 0.000E+00 0.000E+00 0.000E+00 0.000E+00 0.000E+00
BIGSUB   3        0    5.62000E+02    69.400     0.000   122.076    61.365   200.534    10.544     2.273    43.153    50.503     0.018     0.055     0.007     0.638     0.001     0.011     1.757     0.024     0.022 .00000E+00 0.000E+00 0.000E+00 0.000E+00 0.000E+00 0.000E+00
BIGSUB   4        0    5.17781E+03    69.400     0.000   122.079    62.732   187.845     9.898     2.573    40.497    47.903     0.073     0.083     0.011     0.453     0.001     0.020     1.645     0.017     0.019 .00000E+00 0.000E+00 0.000E+00 0.000E+00 0.000E+00 0.000E+00
BIGSUB   5        0    5.18044E+03    69.400     0.000   122.074    61.868   205.468     9.905     3.243    41.716    49.816     0.023     0.118     0.015     0.725     0.001     0.025     1.603     0.023     0.023 .00000E+00 0.000E+00 0.000E+00 0.000E+00 0.000E+00 0.000E+00
BIGSUB   6        0    5.79869E+02    63.300     0.000   127.900    65.594   201.830     4.513     1.855    38.456    44.195     0.020     0.114     0.014     0.282     0.001     0.015     0.649     0.008     0.017 .00000E+00 0.000E+00 0.000E+00 0.000E+00 0.000E+00 0.000E+00
BIGSUB   7        0    5.10309E+03    69.400     0.000   122.070    63.336   181.951    10.480     2.488    43.336    50.345     0.038     0.102     0.013     0.417     0.001     0.018     1.152     0.016     0.029 .00000E+00 0.000E+00 0.000E+00 0.000E+00 0.000E+00 0.000E+00
BIGSUB   8        0    5.11059E+03    63.300     0.000   127.900    64.472   190.917     5.829     6.772    30.089    40.282     0.131     0.168     0.023     1.840     0.001     0.042     0.763     0.034     0.015 .00000E+00 0.000E+00 0.000E+00 0.000E+00 0.000E+00 0.000E+00
BIGSUB   9        0    5.55778E+02    68.800     0.000   130.477    69.589   257.348     5.789     5.195    23.717    33.167     0.103     0.133     0.018     0.002     0.001     0.032     1.781     0.013     0.008 .00000E+00 0.000E+00 0.000E+00 0.000E+00 0.000E+00 0.000E+00
BIGSUB  10        0    5.45121E+02    68.800     0.000   130.473    68.982   250.464     6.127     8.304    20.235    31.949     0.154     0.217     0.029     0.003     0.001     0.056     1.184     0.007     0.005 .00000E+00 0.000E+00 0.000E+00 0.000E+00 0.000E+00 0.000E+00
BIGSUB  11        0    5.64601E+02    63.300     0.000   127.898    61.735   184.273     6.862     2.413    38.746    45.512     0.066     0.137     0.017     0.001     0.001     0.025     1.145     0.007     0.020 .00000E+00 0.000E+00 0.000E+00 0.000E+00 0.000E+00 0.000E+00
BIGSUB  12        0    5.10255E+03    72.700     0.000   123.292    63.967   224.033    11.070     2.370    34.473    41.479     0.040     0.101     0.013     0.110     0.000     0.023     1.513     0.020     0.015 .00000E+00 0.000E+00 0.000E+00 0.000E+00 0.000E+00 0.000E+00
BIGSUB  13        0    5.94719E+02    68.800     0.000   130.473    64.392   244.652     7.532     9.523    20.669    33.346     0.335     0.303     0.039     0.003     0.001     0.075     0.931     0.004     0.007 .00000E+00 0.000E+00 0.000E+00 0.000E+00 0.000E+00 0.000E+00
BIGSUB  14        0    5.10900E+03    72.700     0.000   123.291    70.248   299.736     6.035     6.986    26.554    38.025     0.040     0.382     0.049     0.002     0.002     0.080     1.838     0.013     0.006 .00000E+00 0.000E+00 0.000E+00 0.000E+00 0.000E+00 0.000E+00
BIGSUB  15        0    5.87497E+02    68.800     0.000   130.477    66.588   247.621     7.827     5.464    26.391    35.960     0.207     0.181     0.023     0.002     0.001     0.037     1.497     0.010     0.009 .00000E+00 0.000E+00 0.000E+00 0.000E+00 0.000E+00 0.000E+00
BIGSUB  16        0    5.59907E+02    68.800     0.000   130.482    69.619   270.047     4.560     5.522    24.374    33.853     0.039     0.154     0.020     0.523     0.001     0.031     1.403     0.015     0.007 .00000E+00 0.000E+00 0.000E+00 0.000E+00 0.000E+00 0.000E+00
BIGSUB  17        0    5.21866E+03    68.800     0.000   130.474    63.966   215.715     6.788     6.890    25.286    35.777     0.237     0.285     0.037     0.069     0.001     0.051     1.074     0.011     0.010 .00000E+00 0.000E+00 0.000E+00 0.000E+00 0.000E+00 0.000E+00
BIGSUB   1        0    6.15751E+03   108.700     0.000   128.160    85.943   140.517    33.078     2.861    34.245    40.953     0.040     0.068     0.009     0.003     0.000     0.014     1.232     0.013     0.006 .00000E+00 0.000E+00 0.000E+00 0.000E+00 0.000E+00 0.000E+00
BIGSUB   2        0    6.19174E+03   108.700     0.000   128.157    86.625   211.649    31.683     2.705    32.889    41.581     0.046     0.073     0.010     0.003     0.000     0.015     3.484     0.020     0.007 .00000E+00 0.000E+00 0.000E+00 0.000E+00 0.000E+00 0.000E+00
BIGSUB   3        0    6.62000E+02   108.700     0.000   128.147    82.503   184.698    36.906     2.731    41.686    49.800     0.012     0.042     0.006     0.004     0.001     0.007     2.428     0.016     0.017 .00000E+00 0.000E+00 0.000E+00 0.000E+00 0.000E+00 0.000E+00
BIGSUB   4        0    6.17781E+03   108.700     0.000   128.147    82.617   172.959    35.851     3.004    39.225    47.198     0.039     0.060     0.008     0.003     0.000     0.013     2.144     0.011     0.015 .00000E+00 0.000E+00 0.000E+00 0.000E+00 0.000E+00 0.000E+00
BIGSUB   5        0    6.18044E+03   108.700     0.000   128.146    84.076   188.659    36.111     3.157    40.286    48.530     0.018     0.062     0.008     0.004     0.000     0.011     2.199     0.016     0.018 .00000E+00 0.000E+00 0.000E+00 0.000E+00 0.000E+00 0.000E+00
BIGSUB   6        0    6.79869E+02   108.500     0.000   131.901    87.020   180.957    40.405     1.108    37.769    42.554     0.014     0.076     0.010     0.001     0.000     0.009     0.840     0.007     0.014 .00000E+00 0.000E+00 0.000E+00 0.000E+00 0.000E+00 0.000E+00
BIGSUB   7        0    6.10309E+03   108.700     0.000   128.141    83.238   167.501    35.912     2.580    41.265    48.273     0.017     0.062     0.008     0.002     0.000     0.009     1.443     0.007     0.022 .00000E+00 0.000E+00 0.000E+00 0.000E+00 0.000E+00 0.000E+00
BIGSUB   8        0    6.11059E+03   108.500     0.000   131.901    88.166   170.714    29.921     9.542    28.861    41.804     0.070     0.100     0.014     0.010     0.001     0.023     1.096     0.022     0.010 .00000E+00 0.000E+00 0.000E+00 0.000E+00 0.000E+00 0.000E+00
BIGSUB   9        0    6.55778E+02   122.800     0.000   130.028    85.624   245.041    39.650     6.221    27.179    39.211     0.091     0.149     0.019     0.002     0.001     0.036     3.656     0.008     0.010 .00000E+00 0.000E+00 0.000E+00 0.000E+00 0.000E+00 0.000E+00
BIGSUB  10        0    6.45121E+02   122.800     0.000   130.026    85.210   239.242    35.484    10.956    23.354    38.663     0.158     0.223     0.030     0.004     0.002     0.057     2.427     0.005     0.006 .00000E+00 0.000E+00 0.000E+00 0.000E+00 0.000E+00 0.000E+00
BIGSUB  11        0    6.64601E+02   108.500     0.000   131.899    81.331   165.684    41.942     2.096    38.886    45.547     0.038     0.092     0.011     0.001     0.000     0.015     1.728     0.005     0.018 .00000E+00 0.000E+00 0.000E+00 0.000E+00 0.000E+00 0.000E+00
BIGSUB  12        0    6.10255E+03   111.300     0.000   133.360    86.025   205.906    39.241     2.020    37.112    44.059     0.030     0.067     0.009     0.001     0.000     0.015     2.167     0.019     0.016 .00000E+00 0.000E+00 0.000E+00 0.000E+00 0.000E+00 0.000E+00
BIGSUB  13        0    6.94719E+02   122.800     0.000   130.026    86.100   229.138    37.237    13.233    24.431    41.402     0.333     0.325     0.041     0.004     0.001     0.076     1.799     0.005     0.009 .00000E+00 0.000E+00 0.000E+00 0.000E+00 0.000E+00 0.000E+00
BIGSUB  14        0    6.10900E+03   111.300     0.000   133.359    91.814   280.963    31.864     3.537    27.505    36.210     0.032     0.111     0.014     0.002     0.001     0.023     2.883     0.007     0.007 .00000E+00 0.000E+00 0.000E+00 0.000E+00 0.000E+00 0.000E+00
BIGSUB  15        0    6.87497E+02   122.800     0.000   130.026    85.234   233.166    41.760     7.336    29.845    42.434     0.199     0.230     0.029     0.003     0.001     0.046     2.962     0.008     0.011 .00000E+00 0.000E+00 0.000E+00 0.000E+00 0.000E+00 0.000E+00
BIGSUB  16        0    6.59907E+02   122.800     0.000   130.027    89.237   253.953    41.006     5.856    28.129    39.044     0.054     0.162     0.021     0.012     0.001     0.032     2.835     0.013     0.009 .00000E+00 0.000E+00 0.000E+00 0.000E+00 0.000E+00 0.000E+00
BIGSUB  17        0    6.21866E+03   122.800     0.000   130.024    88.331   196.557    42.306     9.304    29.274    42.853     0.235     0.264     0.034     0.003     0.001     0.053     2.051     0.013     0.012 .00000E+00 0.000E+00 0.000E+00 0.000E+00 0.000E+00 0.000E+00
BIGSUB   1        0    7.15751E+03   144.400     0.000   158.689   104.456   148.653    15.165    15.263    18.903    37.530     0.154     0.266     0.039     0.015     0.004     0.060     1.024     0.001     0.002 .00000E+00 0.000E+00 0.000E+00 0.000E+00 0.000E+00 0.000E+00
BIGSUB   2        0    7.19174E+03   144.400     0.000   158.693   107.528   219.526    10.143    15.610    17.473    38.367     0.192     0.249     0.034     0.012     0.004     0.054     3.047     0.001     0.002 .00000E+00 0.000E+00 0.000E+00 0.000E+00 0.000E+00 0.000E+00
BIGSUB   3        0    7.62000E+02   144.400     0.000   158.705   105.830   190.503    19.088    11.181    24.483    40.742     0.070     0.162     0.021     0.012     0.002     0.034     2.413     0.001     0.006 .00000E+00 0.000E+00 0.000E+00 0.000E+00 0.000E+00 0.000E+00
BIGSUB   4        0    7.17781E+03   144.400     0.000   158.702   104.169   180.044    17.724    13.212    22.761    40.588     0.135     0.205     0.027     0.009     0.002     0.046     2.069     0.001     0.005 .00000E+00 0.000E+00 0.000E+00 0.000E+00 0.000E+00 0.000E+00
BIGSUB   5        0    7.18044E+03   144.400     0.000   158.708   108.372   193.260    16.889    12.306    23.505    40.558     0.076     0.214     0.028     0.013     0.002     0.040     2.146     0.001     0.006 .00000E+00 0.000E+00 0.000E+00 0.000E+00 0.000E+00 0.000E+00
BIGSUB   6        0    7.79869E+02   143.100     0.000   163.250   110.636   195.241    11.656     5.726    23.597    32.610     0.043     0.186     0.024     0.001     0.001     0.025     0.728     0.000     0.005 .00000E+00 0.000E+00 0.000E+00 0.000E+00 0.000E+00 0.000E+00
BIGSUB   7        0    7.10309E+03   144.400     0.000   158.708   101.687   175.711    21.134    11.766    24.047    40.019     0.064     0.217     0.028     0.007     0.002     0.034     1.521     0.001     0.007 .00000E+00 0.000E+00 0.000E+00 0.000E+00 0.000E+00 0.000E+00
BIGSUB   8        0    7.11059E+03   143.100     0.000   163.250   113.326   172.179     6.932    20.326    16.186    39.539     0.097     0.129     0.018     0.029     0.003     0.027     0.968     0.001     0.003 .00000E+00 0.000E+00 0.000E+00 0.000E+00 0.000E+00 0.000E+00
BIGSUB   9        0    7.55778E+02   140.100     0.000   153.295    97.487   257.562    13.909    13.330    20.280    38.210     0.116     0.174     0.023     0.005     0.002     0.041     2.619     0.003     0.005 .00000E+00 0.000E+00 0.000E+00 0.000E+00 0.000E+00 0.000E+00
BIGSUB  10        0    7.45121E+02   140.100     0.000   153.298    97.070   250.431    10.641    19.274    17.446    40.186     0.163     0.215     0.030     0.008     0.003     0.054     1.700     0.001     0.003 .00000E+00 0.000E+00 0.000E+00 0.000E+00 0.000E+00 0.000E+00
BIGSUB  11        0    7.64601E+02   143.100     0.000   163.251   106.566   176.238    16.928     7.373    26.161    37.710     0.076     0.186     0.023     0.001     0.001     0.030     1.599     0.000     0.007 .00000E+00 0.000E+00 0.000E+00 0.000E+00 0.000E+00 0.000E+00
BIGSUB  12        0    7.10255E+03   137.200     0.000   164.451   105.681   213.394    16.129     5.999    23.191    33.456     0.042     0.095     0.012     0.004     0.001     0.020     1.776     0.001     0.006 .00000E+00 0.000E+00 0.000E+00 0.000E+00 0.000E+00 0.000E+00
BIGSUB  13        0    7.94719E+02   140.100     0.000   153.297   104.391   236.379     8.051    18.942    18.385    40.383     0.230     0.205     0.026     0.002     0.002     0.045     1.266     0.000     0.004 .00000E+00 0.000E+00 0.000E+00 0.000E+00 0.000E+00 0.000E+00
BIGSUB  14        0    7.10900E+03   137.200     0.000   164.452   107.833   289.632     7.739    10.436    14.004    28.787     0.036     0.125     0.016     0.007     0.002     0.023     2.313     0.003     0.002 .00000E+00 0.000E+00 0.000E+00 0.000E+00 0.000E+00 0.000E+00
BIGSUB  15        0    7.87497E+02   140.100     0.000   153.293    99.437   243.672    16.611    11.144    22.825    38.283     0.143     0.178     0.022     0.007     0.001     0.033     2.201     0.002     0.005 .00000E+00 0.000E+00 0.000E+00 0.000E+00 0.000E+00 0.000E+00
BIGSUB  16        0    7.59907E+02   140.100     0.000   153.290   104.778   263.299    11.963    11.821    20.979    36.816     0.073     0.185     0.025     0.006     0.002     0.038     1.977     0.001     0.005 .00000E+00 0.000E+00 0.000E+00 0.000E+00 0.000E+00 0.000E+00
BIGSUB  17        0    7.21866E+03   140.100     0.000   153.295   107.849   203.922    11.187    12.091    22.012    37.607     0.161     0.166     0.022     0.001     0.001     0.033     1.450     0.000     0.006 .00000E+00 0.000E+00 0.000E+00 0.000E+00 0.000E+00 0.000E+00
BIGSUB   1        0    8.15751E+03    58.200     0.000   171.606   101.633   103.881     0.001     0.966    12.012    15.689     0.002     0.004     0.001     0.000     0.000     0.001     0.763     0.000     0.000 .00000E+00 0.000E+00 0.000E+00 0.000E+00 0.000E+00 0.000E+00
BIGSUB   2        0    8.19174E+03    58.200     0.000   171.617   103.426   172.424     0.003     0.883     8.713    12.572     0.005     0.006     0.001     0.000     0.000     0.001     1.141     0.000     0.000 .00000E+00 0.000E+00 0.000E+00 0.000E+00 0.000E+00 0.000E+00
BIGSUB   3        0    8.62000E+02    58.200     0.000   171.657    98.250   148.654     0.018     1.133    14.466    18.505     0.002     0.005     0.001     0.001     0.000     0.001     0.669     0.000     0.000 .00000E+00 0.000E+00 0.000E+00 0.000E+00 0.000E+00 0.000E+00
BIGSUB   4        0    8.17781E+03    58.200     0.000   171.657    97.019   139.524     0.015     1.111    13.594    17.525     0.002     0.004     0.001     0.000     0.000     0.001     0.687     0.000     0.000 .00000E+00 0.000E+00 0.000E+00 0.000E+00 0.000E+00 0.000E+00
BIGSUB   5        0    8.18044E+03    58.200     0.000   171.661    99.378   150.222     0.016     1.238    13.028    17.057     0.002     0.006     0.001     0.001     0.000     0.001     0.619     0.000     0.000 .00000E+00 0.000E+00 0.000E+00 0.000E+00 0.000E+00 0.000E+00
BIGSUB   6        0    8.79869E+02    60.800     0.000   179.491   101.428   154.245     0.010     0.140     9.901    12.434     0.001     0.005     0.001     0.000     0.000     0.001     0.286     0.000     0.000 .00000E+00 0.000E+00 0.000E+00 0.000E+00 0.000E+00 0.000E+00
BIGSUB   7        0    8.10309E+03    58.200     0.000   171.682    93.848   137.920     0.674     1.069    15.055    18.831     0.001     0.005     0.001     0.003     0.000     0.001     0.445     0.000     0.002 .00000E+00 0.000E+00 0.000E+00 0.000E+00 0.000E+00 0.000E+00
BIGSUB   8        0    8.11059E+03    60.800     0.000   179.494   111.331   116.442     0.007     4.854     6.221    13.084     0.010     0.013     0.002     0.001     0.001     0.002     0.333     0.000     0.000 .00000E+00 0.000E+00 0.000E+00 0.000E+00 0.000E+00 0.000E+00
BIGSUB   9        0    8.55778E+02    67.600     0.000   165.827    95.068   224.361     2.363     2.370    10.285    15.540     0.014     0.023     0.003     0.012     0.000     0.005     1.210     0.003     0.002 .00000E+00 0.000E+00 0.000E+00 0.000E+00 0.000E+00 0.000E+00
BIGSUB  10        0    8.45121E+02    67.600     0.000   165.834    96.515   214.800     1.741     4.397     8.123    14.795     0.027     0.038     0.005     0.032     0.001     0.009     0.792     0.002     0.001 .00000E+00 0.000E+00 0.000E+00 0.000E+00 0.000E+00 0.000E+00
BIGSUB  11        0    8.64601E+02    60.800     0.000   179.504    96.423   139.510     0.015     0.658    13.110    16.423     0.005     0.008     0.001     0.000     0.000     0.001     0.493     0.000     0.000 .00000E+00 0.000E+00 0.000E+00 0.000E+00 0.000E+00 0.000E+00
BIGSUB  12        0    8.10255E+03    69.700     0.000   171.719    95.011   185.744     1.220     0.421    12.022    15.285     0.002     0.006     0.001     0.002     0.000     0.001     0.764     0.001     0.001 .00000E+00 0.000E+00 0.000E+00 0.000E+00 0.000E+00 0.000E+00
BIGSUB  13        0    8.94719E+02    67.600     0.000   165.837    96.493   202.338     0.559     4.226     7.249    13.531     0.037     0.034     0.004     0.000     0.000     0.007     0.567     0.000     0.000 .00000E+00 0.000E+00 0.000E+00 0.000E+00 0.000E+00 0.000E+00
BIGSUB  14        0    8.10900E+03    69.700     0.000   171.728    96.606   259.439     1.361     0.997     6.039     9.721     0.003     0.011     0.001     0.006     0.000     0.002     1.031     0.002     0.001 .00000E+00 0.000E+00 0.000E+00 0.000E+00 0.000E+00 0.000E+00
BIGSUB  15        0    8.87497E+02    67.600     0.000   165.835    91.726   214.533     2.430     1.806    12.459    17.025     0.019     0.028     0.004     0.009     0.000     0.005     0.960     0.001     0.001 .00000E+00 0.000E+00 0.000E+00 0.000E+00 0.000E+00 0.000E+00
BIGSUB  16        0    8.59907E+02    67.600     0.000   165.829   100.311   226.125     1.723     2.002     9.327    13.964     0.008     0.024     0.003     0.012     0.000     0.004     0.928     0.001     0.001 .00000E+00 0.000E+00 0.000E+00 0.000E+00 0.000E+00 0.000E+00
BIGSUB  17        0    8.21866E+03    67.600     0.000   165.845    96.214   172.405     0.614     1.800     9.529    13.685     0.018     0.019     0.002     0.000     0.000     0.004     0.639     0.000     0.000 .00000E+00 0.000E+00 0.000E+00 0.000E+00 0.000E+00 0.000E+00
BIGSUB   1        0    9.15751E+03   108.200     0.000   107.179    63.538   141.482     1.930     4.124     2.827     9.209     0.029     0.045     0.006     0.002     0.001     0.008     0.763     0.000     0.000 .00000E+00 0.000E+00 0.000E+00 0.000E+00 0.000E+00 0.000E+00
BIGSUB   2        0    9.19174E+03   108.200     0.000   107.178    63.074   209.373     1.205     4.523     1.826    10.071     0.041     0.057     0.008     0.002     0.001     0.011     2.329     0.000     0.000 .00000E+00 0.000E+00 0.000E+00 0.000E+00 0.000E+00 0.000E+00
BIGSUB   3        0    9.62000E+02   108.200     0.000   107.197    55.428   186.377     8.772     4.503     4.814    12.763     0.016     0.040     0.006     0.003     0.001     0.007     1.718     0.000     0.000 .00000E+00 0.000E+00 0.000E+00 0.000E+00 0.000E+00 0.000E+00
BIGSUB   4        0    9.17781E+03   108.200     0.000   107.211    56.138   177.743     7.365     4.878     4.215    12.229     0.026     0.044     0.006     0.002     0.001     0.009     1.490     0.000     0.000 .00000E+00 0.000E+00 0.000E+00 0.000E+00 0.000E+00 0.000E+00
BIGSUB   5        0    9.18044E+03   108.200     0.000   107.193    54.295   189.128     8.303     5.077     4.181    12.498     0.020     0.058     0.008     0.003     0.001     0.010     1.570     0.000     0.000 .00000E+00 0.000E+00 0.000E+00 0.000E+00 0.000E+00 0.000E+00
BIGSUB   6        0    9.79869E+02    99.100     0.000   112.086    55.547   192.280     4.117     0.852     2.381     5.305     0.007     0.035     0.005     0.004     0.000     0.004     0.468     0.000     0.000 .00000E+00 0.000E+00 0.000E+00 0.000E+00 0.000E+00 0.000E+00
BIGSUB   7        0    9.10309E+03   108.200     0.000   107.228    52.765   174.276    13.189     4.735     6.359    13.942     0.014     0.054     0.007     0.010     0.001     0.007     1.086     0.002     0.001 .00000E+00 0.000E+00 0.000E+00 0.000E+00 0.000E+00 0.000E+00
BIGSUB   8        0    9.11059E+03    99.100     0.000   112.089    59.710   143.122     2.851     9.276     1.453    12.584     0.021     0.030     0.005     0.004     0.001     0.005     0.590     0.000     0.000 .00000E+00 0.000E+00 0.000E+00 0.000E+00 0.000E+00 0.000E+00
BIGSUB   9        0    9.55778E+02   103.700     0.000   110.839    58.246   252.332     8.056     7.331     4.831    15.412     0.048     0.074     0.009     0.004     0.001     0.015     1.930     0.005     0.001 .00000E+00 0.000E+00 0.000E+00 0.000E+00 0.000E+00 0.000E+00
BIGSUB  10        0    9.45121E+02   103.700     0.000   110.839    60.701   239.751     5.706    10.941     3.421    16.760     0.068     0.087     0.011     0.009     0.002     0.019     1.240     0.002     0.001 .00000E+00 0.000E+00 0.000E+00 0.000E+00 0.000E+00 0.000E+00
BIGSUB  11        0    9.64601E+02    99.100     0.000   112.103    52.384   177.197     6.156     1.808     3.400     7.841     0.014     0.033     0.004     0.001     0.000     0.005     0.968     0.000     0.000 .00000E+00 0.000E+00 0.000E+00 0.000E+00 0.000E+00 0.000E+00
BIGSUB  12        0    9.10255E+03    98.100     0.000   110.803    52.825   218.903     9.480     1.188     4.611     8.800     0.008     0.019     0.002     0.003     0.000     0.003     1.391     0.003     0.001 .00000E+00 0.000E+00 0.000E+00 0.000E+00 0.000E+00 0.000E+00
BIGSUB  13        0    9.94719E+02   103.700     0.000   110.846    55.507   233.505     4.656    11.267     2.016    15.347     0.123     0.103     0.013     0.002     0.001     0.021     0.923     0.000     0.000 .00000E+00 0.000E+00 0.000E+00 0.000E+00 0.000E+00 0.000E+00
BIGSUB  14        0    9.10900E+03    98.100     0.000   110.817    57.284   290.740     5.128     2.436     2.858     8.427     0.009     0.031     0.004     0.007     0.001     0.005     1.868     0.005     0.001 .00000E+00 0.000E+00 0.000E+00 0.000E+00 0.000E+00 0.000E+00
BIGSUB  15        0    9.87497E+02   103.700     0.000   110.861    52.988   246.679    10.102     6.675     5.319    15.035     0.083     0.103     0.013     0.008     0.001     0.018     1.621     0.003     0.001 .00000E+00 0.000E+00 0.000E+00 0.000E+00 0.000E+00 0.000E+00
BIGSUB  16        0    9.59907E+02   103.700     0.000   110.863    58.002   257.513     6.144     6.510     3.906    13.214     0.033     0.086     0.011     0.004     0.001     0.015     1.469     0.002     0.001 .00000E+00 0.000E+00 0.000E+00 0.000E+00 0.000E+00 0.000E+00
BIGSUB  17        0    9.21866E+03   103.700     0.000   110.872    51.781   208.666     7.250     7.161     2.889    12.470     0.097     0.109     0.016     0.005     0.001     0.019     1.094     0.001     0.000 .00000E+00 0.000E+00 0.000E+00 0.000E+00 0.000E+00 0.000E+00
BIGSUB   1        0   10.15751E+03    99.800     0.000    88.347    51.964   151.881    25.292    10.972     2.305    15.526     0.112     0.335     0.044     0.044     0.004     0.032     1.050     0.005     0.000 .00000E+00 0.000E+00 0.000E+00 0.000E+00 0.000E+00 0.000E+00
BIGSUB   2        0   10.19174E+03    99.800     0.000    88.351    51.950   223.963    19.305    11.084     1.510    16.567     0.137     0.363     0.047     0.054     0.005     0.035     2.865     0.020     0.000 .00000E+00 0.000E+00 0.000E+00 0.000E+00 0.000E+00 0.000E+00
BIGSUB   3        0   10.62000E+02    99.800     0.000    88.395    44.876   196.564    33.762     8.628     6.873    19.323     0.055     0.212     0.028     0.058     0.005     0.025     2.386     0.018     0.000 .00000E+00 0.000E+00 0.000E+00 0.000E+00 0.000E+00 0.000E+00
BIGSUB   4        0   10.17781E+03    99.800     0.000    88.415    46.523   186.223    32.455    10.287     5.948    19.660     0.100     0.309     0.040     0.053     0.005     0.033     2.064     0.014     0.000 .00000E+00 0.000E+00 0.000E+00 0.000E+00 0.000E+00 0.000E+00
BIGSUB   5        0   10.18044E+03    99.800     0.000    88.391    43.974   200.779    32.307     9.741     6.352    19.640     0.061     0.290     0.038     0.069     0.005     0.032     2.162     0.021     0.000 .00000E+00 0.000E+00 0.000E+00 0.000E+00 0.000E+00 0.000E+00
BIGSUB   6        0   10.79869E+02    87.900     0.000    88.753    47.961   207.482    19.081     4.975     3.554    10.532     0.037     0.203     0.028     0.035     0.003     0.020     0.708     0.006     0.000 .00000E+00 0.000E+00 0.000E+00 0.000E+00 0.000E+00 0.000E+00
BIGSUB   7        0   10.10309E+03    99.800     0.000    88.450    43.566   182.045    37.603     9.370     9.510    21.895     0.051     0.263     0.034     0.057     0.005     0.028     1.517     0.011     0.001 .00000E+00 0.000E+00 0.000E+00 0.000E+00 0.000E+00 0.000E+00
BIGSUB   8        0   10.11059E+03    87.900     0.000    88.759    42.435   164.473    10.719    12.575     2.333    16.791     0.045     0.144     0.020     0.060     0.004     0.014     0.870     0.006     0.000 .00000E+00 0.000E+00 0.000E+00 0.000E+00 0.000E+00 0.000E+00
BIGSUB   9        0   10.55778E+02    88.800     0.000    94.470    50.697   259.258    17.022    12.077     5.908    21.312     0.095     0.276     0.036     0.067     0.005     0.034     2.215     0.020     0.001 .00000E+00 0.000E+00 0.000E+00 0.000E+00 0.000E+00 0.000E+00
BIGSUB  10        0   10.45121E+02    88.800     0.000    94.474    52.509   246.918    12.487    15.344     4.198    21.936     0.108     0.291     0.038     0.093     0.006     0.035     1.432     0.011     0.001 .00000E+00 0.000E+00 0.000E+00 0.000E+00 0.000E+00 0.000E+00
BIGSUB  11        0   10.64601E+02    87.900     0.000    88.781    45.200   186.824    25.656     6.040     5.324    14.161     0.048     0.221     0.028     0.050     0.004     0.022     1.432     0.010     0.000 .00000E+00 0.000E+00 0.000E+00 0.000E+00 0.000E+00 0.000E+00
BIGSUB  12        0   10.10255E+03    92.200     0.000    94.506    45.196   227.339    28.635     8.262     7.295    18.647     0.072     0.252     0.035     0.075     0.005     0.033     1.738     0.018     0.001 .00000E+00 0.000E+00 0.000E+00 0.000E+00 0.000E+00 0.000E+00
BIGSUB  13        0   10.94719E+02    88.800     0.000    94.486    48.533   242.831    13.396    16.580     3.306    21.942     0.223     0.516     0.067     0.149     0.007     0.045     1.120     0.011     0.000 .00000E+00 0.000E+00 0.000E+00 0.000E+00 0.000E+00 0.000E+00
BIGSUB  14        0   10.10900E+03    92.200     0.000    94.530    48.813   304.925    14.929    12.216     3.573    18.951     0.046     0.254     0.032     0.111     0.007     0.030     2.128     0.025     0.001 .00000E+00 0.000E+00 0.000E+00 0.000E+00 0.000E+00 0.000E+00
BIGSUB  15        0   10.87497E+02    88.800     0.000    94.506    46.234   254.156    21.400    11.903     7.492    22.533     0.174     0.454     0.058     0.109     0.006     0.044     1.927     0.021     0.001 .00000E+00 0.000E+00 0.000E+00 0.000E+00 0.000E+00 0.000E+00
BIGSUB  16        0   10.59907E+02    88.800     0.000    94.505    49.034   267.898    16.379    11.448     4.497    18.759     0.070     0.298     0.038     0.084     0.006     0.035     1.712     0.022     0.001 .00000E+00 0.000E+00 0.000E+00 0.000E+00 0.000E+00 0.000E+00
BIGSUB  17        0   10.21866E+03    88.800     0.000    94.528    45.908   217.578    19.442    13.326     5.135    20.899     0.212     0.502     0.073     0.115     0.007     0.050     1.334     0.013     0.000 .00000E+00 0.000E+00 0.000E+00 0.000E+00 0.000E+00 0.000E+00
BIGSUB   1        0   11.15751E+03    87.700     0.000    43.807    32.752   162.808    39.063     3.366    17.117    22.930     0.047     0.108     0.014     0.047     0.001     0.013     1.319     0.009     0.001 .00000E+00 0.000E+00 0.000E+00 0.000E+00 0.000E+00 0.000E+00
BIGSUB   2        0   11.19174E+03    87.700     0.000    43.806    32.387   234.615    37.424     3.490    14.029    21.862     0.058     0.123     0.016     0.057     0.002     0.015     3.327     0.025     0.001 .00000E+00 0.000E+00 0.000E+00 0.000E+00 0.000E+00 0.000E+00
BIGSUB   3        0   11.62000E+02    87.700     0.000    43.845    28.524   207.830    42.081     3.119    23.230    30.048     0.017     0.054     0.007     0.050     0.002     0.007     2.310     0.022     0.001 .00000E+00 0.000E+00 0.000E+00 0.000E+00 0.000E+00 0.000E+00
BIGSUB   4        0   11.17781E+03    87.700     0.000    43.877    29.589   196.222    42.023     3.681    22.125    29.194     0.037     0.087     0.011     0.047     0.001     0.011     2.070     0.019     0.001 .00000E+00 0.000E+00 0.000E+00 0.000E+00 0.000E+00 0.000E+00
BIGSUB   5        0   11.18044E+03    87.700     0.000    43.835    28.307   212.297    41.746     3.451    22.354    29.261     0.021     0.075     0.010     0.058     0.002     0.009     2.116     0.026     0.002 .00000E+00 0.000E+00 0.000E+00 0.000E+00 0.000E+00 0.000E+00
BIGSUB   6        0   11.79869E+02    81.900     0.000    47.515    31.372   215.108    40.069     1.792    16.160    19.823     0.016     0.079     0.011     0.035     0.001     0.008     0.688     0.008     0.001 .00000E+00 0.000E+00 0.000E+00 0.000E+00 0.000E+00 0.000E+00
BIGSUB   7        0   11.10309E+03    87.700     0.000    43.914    28.093   191.595    45.148     3.128    26.595    32.611     0.014     0.065     0.009     0.042     0.001     0.007     1.406     0.014     0.004 .00000E+00 0.000E+00 0.000E+00 0.000E+00 0.000E+00 0.000E+00
BIGSUB   8        0   11.11059E+03    81.900     0.000    47.521    29.423   189.618    17.366     8.126     8.164    18.034     0.029     0.072     0.010     0.067     0.003     0.008     0.888     0.008     0.000 .00000E+00 0.000E+00 0.000E+00 0.000E+00 0.000E+00 0.000E+00
BIGSUB   9        0   11.55778E+02    80.600     0.000    47.670    32.412   269.747    27.917     6.716    15.063    25.064     0.051     0.122     0.016     0.066     0.002     0.018     2.253     0.019     0.003 .00000E+00 0.000E+00 0.000E+00 0.000E+00 0.000E+00 0.000E+00
BIGSUB  10        0   11.45121E+02    80.600     0.000    47.668    33.444   259.328    22.534     9.481    11.139    22.967     0.068     0.148     0.019     0.081     0.003     0.021     1.480     0.010     0.002 .00000E+00 0.000E+00 0.000E+00 0.000E+00 0.000E+00 0.000E+00
BIGSUB  11        0   11.64601E+02    81.900     0.000    47.552    30.193   195.299    38.876     2.544    19.381    24.536     0.024     0.084     0.011     0.044     0.001     0.009     1.330     0.012     0.001 .00000E+00 0.000E+00 0.000E+00 0.000E+00 0.000E+00 0.000E+00
BIGSUB  12        0   11.10255E+03    86.000     0.000    49.587    30.337   234.278    43.236     3.113    23.491    29.788     0.023     0.075     0.010     0.052     0.002     0.011     1.850     0.019     0.003 .00000E+00 0.000E+00 0.000E+00 0.000E+00 0.000E+00 0.000E+00
BIGSUB  13        0   11.94719E+02    80.600     0.000    47.685    31.916   254.570    23.334    11.115    11.121    24.187     0.163     0.286     0.037     0.135     0.004     0.033     1.100     0.011     0.001 .00000E+00 0.000E+00 0.000E+00 0.000E+00 0.000E+00 0.000E+00
BIGSUB  14        0   11.10900E+03    86.000     0.000    49.620    32.868   312.897    36.656     4.769    15.187    23.405     0.022     0.101     0.013     0.078     0.003     0.013     2.468     0.026     0.003 .00000E+00 0.000E+00 0.000E+00 0.000E+00 0.000E+00 0.000E+00
BIGSUB  15        0   11.87497E+02    80.600     0.000    47.720    30.490   262.413    31.602     7.489    18.404    28.890     0.123     0.244     0.031     0.114     0.003     0.029     1.847     0.020     0.003 .00000E+00 0.000E+00 0.000E+00 0.000E+00 0.000E+00 0.000E+00
BIGSUB  16        0   11.59907E+02    80.600     0.000    47.727    31.761   278.779    29.284     5.933    14.436    23.123     0.038     0.130     0.017     0.085     0.003     0.017     1.737     0.021     0.003 .00000E+00 0.000E+00 0.000E+00 0.000E+00 0.000E+00 0.000E+00
BIGSUB  17        0   11.21866E+03    80.600     0.000    47.745    30.075   226.941    30.058     8.828    15.839    26.973     0.154     0.274     0.040     0.126     0.004     0.034     1.263     0.013     0.001 .00000E+00 0.000E+00 0.000E+00 0.000E+00 0.000E+00 0.000E+00
BIGSUB   1        0   12.15751E+03    92.900     4.800    38.267    25.282   164.138    54.195    11.112    25.679    39.149     0.139     0.319     0.041     0.069     0.004     0.049     1.105     0.008     0.002 .00000E+00 0.000E+00 0.000E+00 0.000E+00 0.000E+00 0.000E+00
BIGSUB   2        0   12.19174E+03    92.900     4.800    38.267    24.941   235.242    52.413    11.052    23.049    39.359     0.170     0.340     0.044     0.081     0.004     0.054     4.126     0.030     0.002 .00000E+00 0.000E+00 0.000E+00 0.000E+00 0.000E+00 0.000E+00
BIGSUB   3        0   12.62000E+02    92.900     4.800    38.309    22.225   208.232    59.378     8.148    30.722    43.451     0.060     0.197     0.025     0.081     0.004     0.032     3.064     0.032     0.003 .00000E+00 0.000E+00 0.000E+00 0.000E+00 0.000E+00 0.000E+00
BIGSUB   4        0   12.17781E+03    92.900     4.800    38.336    23.021   196.196    57.700     9.854    30.004    43.908     0.115     0.273     0.035     0.077     0.004     0.044     2.594     0.027     0.003 .00000E+00 0.000E+00 0.000E+00 0.000E+00 0.000E+00 0.000E+00
BIGSUB   5        0   12.18044E+03    92.900     4.800    38.301    22.198   213.294    57.962     9.467    29.975    43.663     0.069     0.281     0.036     0.101     0.004     0.043     2.751     0.037     0.004 .00000E+00 0.000E+00 0.000E+00 0.000E+00 0.000E+00 0.000E+00
BIGSUB   6        0   12.79869E+02    87.900     0.000    41.030    24.286   212.759    58.994     6.358    24.217    32.738     0.044     0.240     0.032     0.077     0.003     0.031     0.895     0.012     0.002 .00000E+00 0.000E+00 0.000E+00 0.000E+00 0.000E+00 0.000E+00
BIGSUB   7        0   12.10309E+03    92.900     4.800    38.373    21.985   191.618    60.644     8.737    33.689    45.878     0.053     0.255     0.032     0.080     0.004     0.035     1.823     0.021     0.006 .00000E+00 0.000E+00 0.000E+00 0.000E+00 0.000E+00 0.000E+00
BIGSUB   8        0   12.11059E+03    87.900     0.000    41.036    23.727   200.841    36.524    16.003    11.314    29.446     0.061     0.155     0.021     0.088     0.004     0.024     1.299     0.015     0.001 .00000E+00 0.000E+00 0.000E+00 0.000E+00 0.000E+00 0.000E+00
BIGSUB   9        0   12.55778E+02   100.000     0.000    36.500    23.899   272.630    54.355    15.580    20.544    41.147     0.107     0.263     0.034     0.096     0.005     0.048     3.931     0.030     0.004 .00000E+00 0.000E+00 0.000E+00 0.000E+00 0.000E+00 0.000E+00
BIGSUB  10        0   12.45121E+02   100.000     0.000    36.500    24.562   266.487    45.843    20.983    16.078    40.538     0.134     0.294     0.038     0.113     0.005     0.055     2.571     0.016     0.003 .00000E+00 0.000E+00 0.000E+00 0.000E+00 0.000E+00 0.000E+00
BIGSUB  11        0   12.64601E+02    87.900     0.000    41.064    23.643   193.721    56.943     7.369    26.041    36.699     0.060     0.248     0.031     0.094     0.003     0.034     1.921     0.019     0.002 .00000E+00 0.000E+00 0.000E+00 0.000E+00 0.000E+00 0.000E+00
BIGSUB  12        0   12.10255E+03   104.100     6.750    36.521    21.658   232.474    71.985     9.734    30.934    45.048     0.077     0.232     0.031     0.101     0.005     0.042     2.906     0.031     0.005 .00000E+00 0.000E+00 0.000E+00 0.000E+00 0.000E+00 0.000E+00
BIGSUB  13        0   12.94719E+02   100.000     0.000    36.513    23.313   259.376    47.800    23.457    16.385    42.642     0.288     0.503     0.065     0.181     0.006     0.082     1.899     0.019     0.002 .00000E+00 0.000E+00 0.000E+00 0.000E+00 0.000E+00 0.000E+00
BIGSUB  14        0   12.10900E+03   104.100     6.750    36.547    23.330   310.611    64.678    15.465    23.396    43.859     0.065     0.313     0.039     0.154     0.007     0.051     3.896     0.036     0.005 .00000E+00 0.000E+00 0.000E+00 0.000E+00 0.000E+00 0.000E+00
BIGSUB  15        0   12.87497E+02   100.000     0.000    36.541    22.401   261.759    59.603    16.189    23.879    44.543     0.226     0.466     0.059     0.158     0.005     0.074     3.244     0.034     0.004 .00000E+00 0.000E+00 0.000E+00 0.000E+00 0.000E+00 0.000E+00
BIGSUB  16        0   12.59907E+02   100.000     0.000    36.545    23.607   282.975    55.240    14.824    20.759    39.650     0.083     0.314     0.040     0.135     0.006     0.051     2.981     0.032     0.004 .00000E+00 0.000E+00 0.000E+00 0.000E+00 0.000E+00 0.000E+00
BIGSUB  17        0   12.21866E+03   100.000     0.000    36.562    22.121   227.666    57.017    18.830    21.825    43.978     0.268     0.491     0.069     0.175     0.007     0.083     2.200     0.022     0.003 .00000E+00 0.000E+00 0.000E+00 0.000E+00 0.000E+00 0.000E+00
BIGSUB   1        0 1997.15751E+03  1181.100    41.911  1112.930   688.195   164.138   374.824   105.686   328.844   477.817     1.889     3.556     0.492     0.979     0.034     0.698    13.312     0.075     0.054 .00000E+00 0.000E+00 0.000E+00 0.000E+00 0.000E+00 0.000E+00
BIGSUB   2        0 1997.19174E+03  1181.100    41.911  1112.932   688.838   235.242   351.174   106.298   305.476   478.088     2.713     3.950     0.523     0.848     0.035     0.772    37.947     0.203     0.054 .00000E+00 0.000E+00 0.000E+00 0.000E+00 0.000E+00 0.000E+00
BIGSUB   3        0 1997.62000E+02  1181.100    41.911  1113.168   637.987   208.232   433.824    83.213   384.488   529.221     1.139     2.440     0.320     0.901     0.031     0.506    27.795     0.215     0.108 .00000E+00 0.000E+00 0.000E+00 0.000E+00 0.000E+00 0.000E+00
BIGSUB   4        0 1997.17781E+03  1181.100    41.911  1113.332   645.645   196.196   416.498    96.303   367.312   520.245     3.461     3.928     0.523     0.695     0.030     0.841    24.280     0.176     0.102 .00000E+00 0.000E+00 0.000E+00 0.000E+00 0.000E+00 0.000E+00
BIGSUB   5        0 1997.18044E+03  1181.100    41.911  1113.123   643.465   213.294   421.303    93.010   373.840   524.894     1.198     3.358     0.433     1.034     0.029     0.617    25.066     0.232     0.117 .00000E+00 0.000E+00 0.000E+00 0.000E+00 0.000E+00 0.000E+00
BIGSUB   6        0 1997.79869E+02  1127.300    13.700  1155.889   670.975   212.759   388.589    60.670   344.137   446.009     0.741     3.366     0.438     0.472     0.024     0.447     8.531     0.078     0.090 .00000E+00 0.000E+00 0.000E+00 0.000E+00 0.000E+00 0.000E+00
BIGSUB   7        0 1997.10309E+03  1181.100    41.910  1113.546   628.825   191.618   449.534    86.806   399.423   537.675     1.887     3.834     0.494     0.746     0.026     0.669    16.976     0.143     0.152 .00000E+00 0.000E+00 0.000E+00 0.000E+00 0.000E+00 0.000E+00
BIGSUB   8        0 1997.11059E+03  1127.300    13.700  1155.925   679.646   200.841   279.846   162.920   264.070   464.780     2.756     3.677     0.507     2.201     0.037     0.845    11.432     0.136     0.073 .00000E+00 0.000E+00 0.000E+00 0.000E+00 0.000E+00 0.000E+00
BIGSUB   9        0 1997.55778E+02  1141.100     1.200  1130.844   663.083   272.630   320.621   127.700   267.426   451.695     4.562     5.457     0.734     0.329     0.033     1.223    30.512     0.195     0.068 .00000E+00 0.000E+00 0.000E+00 0.000E+00 0.000E+00 0.000E+00
BIGSUB  10        0 1997.45121E+02  1141.100     1.200  1130.841   671.255   266.487   276.048   175.057   232.138   450.466     5.044     6.127     0.834     0.486     0.041     1.431    20.055     0.106     0.041 .00000E+00 0.000E+00 0.000E+00 0.000E+00 0.000E+00 0.000E+00
BIGSUB  11        0 1997.64601E+02  1127.300    13.700  1156.088   640.766   193.721   400.394    70.540   356.191   477.132     1.627     3.598     0.462     0.247     0.023     0.605    17.521     0.114     0.109 .00000E+00 0.000E+00 0.000E+00 0.000E+00 0.000E+00 0.000E+00
BIGSUB  12        0 1997.10255E+03  1148.300    26.226  1151.456   645.667   232.474   413.493    67.893   351.457   474.270     1.515     2.823     0.376     0.384     0.024     0.609    22.132     0.195     0.102 .00000E+00 0.000E+00 0.000E+00 0.000E+00 0.000E+00 0.000E+00
BIGSUB  13        0 1997.94719E+02  1141.100     1.200  1130.924   659.923   259.376   276.972   189.069   231.660   458.852     9.177     8.010     1.080     0.623     0.040     1.716    14.973     0.092     0.051 .00000E+00 0.000E+00 0.000E+00 0.000E+00 0.000E+00 0.000E+00
BIGSUB  14        0 1997.10900E+03  1148.300    26.226  1151.626   686.182   310.611   330.489   104.149   274.272   434.723     1.197     3.764     0.484     0.428     0.034     0.736    29.051     0.219     0.059 .00000E+00 0.000E+00 0.000E+00 0.000E+00 0.000E+00 0.000E+00
BIGSUB  15        0 1997.87497E+02  1141.100     1.200  1131.100   639.427   261.759   350.147   126.616   292.044   471.641     6.502     6.214     0.823     0.519     0.032     1.154    25.295     0.184     0.073 .00000E+00 0.000E+00 0.000E+00 0.000E+00 0.000E+00 0.000E+00
BIGSUB  16        0 1997.59907E+02  1141.100     1.200  1131.128   676.604   282.975   323.100   120.112   270.162   440.359     2.038     4.382     0.577     0.956     0.038     0.838    23.366     0.183     0.065 .00000E+00 0.000E+00 0.000E+00 0.000E+00 0.000E+00 0.000E+00
BIGSUB  17        0 1997.21866E+03  1141.100     1.200  1131.232   650.748   227.666   328.875   144.249   274.502   462.664     6.786     8.909     1.225     0.611     0.040     1.406    17.341     0.123     0.074 .00000E+00 0.000E+00 0.000E+00 0.000E+00 0.000E+00 0.000E+00
BIGSUB   1        0    1.15751E+03   155.100     0.500    33.667    23.859   164.638   108.876    19.429    43.210    66.420     0.253     0.605     0.079     0.040     0.006     0.107     2.229     0.014     0.010 .00000E+00 0.000E+00 0.000E+00 0.000E+00 0.000E+00 0.000E+00
BIGSUB   2        0    1.19174E+03   155.100     0.500    33.666    23.292   237.021   103.147    19.381    40.493    68.710     0.410     0.753     0.097     0.045     0.006     0.140     7.411     0.045     0.011 .00000E+00 0.000E+00 0.000E+00 0.000E+00 0.000E+00 0.000E+00
BIGSUB   3        0    1.62000E+02   155.100     0.500    33.700    21.781   209.172   113.089    13.965    48.008    69.102     0.147     0.418     0.054     0.043     0.005     0.078     5.318     0.053     0.018 .00000E+00 0.000E+00 0.000E+00 0.000E+00 0.000E+00 0.000E+00
BIGSUB   4        0    1.17781E+03   155.100     0.500    33.727    22.545   197.070   110.055    16.998    46.858    70.177     0.771     0.835     0.107     0.041     0.005     0.176     4.571     0.044     0.017 .00000E+00 0.000E+00 0.000E+00 0.000E+00 0.000E+00 0.000E+00
BIGSUB   5        0    1.18044E+03   155.100     0.500    33.692    22.051   214.242   111.305    16.016    46.909    69.452     0.174     0.613     0.078     0.049     0.005     0.103     4.767     0.059     0.020 .00000E+00 0.000E+00 0.000E+00 0.000E+00 0.000E+00 0.000E+00
BIGSUB   6        0    1.79869E+02   147.100     0.000    34.060    22.371   214.029   111.236    10.596    44.397    58.174     0.143     0.813     0.105     0.040     0.004     0.102     1.598     0.021     0.014 .00000E+00 0.000E+00 0.000E+00 0.000E+00 0.000E+00 0.000E+00
BIGSUB   7        0    1.10309E+03   155.100     0.500    33.759    22.031   192.300   114.316    14.886    50.358    70.332     0.420     0.760     0.096     0.040     0.005     0.130     3.166     0.035     0.026 .00000E+00 0.000E+00 0.000E+00 0.000E+00 0.000E+00 0.000E+00
BIGSUB   8        0    1.11059E+03   147.100     0.000    34.065    23.189   206.431    88.237    27.806    26.297    57.363     0.974     1.146     0.149     0.054     0.007     0.274     2.250     0.028     0.009 .00000E+00 0.000E+00 0.000E+00 0.000E+00 0.000E+00 0.000E+00
BIGSUB   9        0    1.55778E+02   139.100     0.100    32.004    23.593   271.792    89.337    21.272    37.296    65.696     0.861     1.103     0.145     0.057     0.006     0.254     5.775     0.040     0.018 .00000E+00 0.000E+00 0.000E+00 0.000E+00 0.000E+00 0.000E+00
BIGSUB  10        0    1.45121E+02   139.100     0.100    32.002    24.017   266.771    81.685    29.308    31.257    65.521     1.142     1.436     0.189     0.080     0.007     0.347     3.825     0.023     0.010 .00000E+00 0.000E+00 0.000E+00 0.000E+00 0.000E+00 0.000E+00
BIGSUB  11        0    1.64601E+02   147.100     0.000    34.090    22.384   195.462   107.218    12.405    44.092    61.473     0.443     0.916     0.116     0.047     0.004     0.153     3.329     0.033     0.017 .00000E+00 0.000E+00 0.000E+00 0.000E+00 0.000E+00 0.000E+00
BIGSUB  12        0    1.10255E+03   140.700     0.000    34.204    23.190   231.040   102.571    12.328    50.129    68.364     0.207     0.459     0.060     0.038     0.004     0.097     4.089     0.040     0.024 .00000E+00 0.000E+00 0.000E+00 0.000E+00 0.000E+00 0.000E+00
BIGSUB  13        0    1.94719E+02   139.100     0.100    32.015    23.815   258.375    81.040    32.484    32.152    68.551     2.181     2.027     0.261     0.090     0.007     0.447     2.771     0.024     0.011 .00000E+00 0.000E+00 0.000E+00 0.000E+00 0.000E+00 0.000E+00
BIGSUB  14        0    1.10900E+03   140.700     0.000    34.230    25.163   308.743    92.749    19.257    42.280    68.448     0.226     0.744     0.095     0.057     0.006     0.149     5.475     0.044     0.019 .00000E+00 0.000E+00 0.000E+00 0.000E+00 0.000E+00 0.000E+00
BIGSUB  15        0    1.87497E+02   139.100     0.100    32.043    22.915   260.597    90.638    22.084    41.118    69.363     1.385     1.359     0.174     0.072     0.005     0.245     4.652     0.042     0.019 .00000E+00 0.000E+00 0.000E+00 0.000E+00 0.000E+00 0.000E+00
BIGSUB  16        0    1.59907E+02   139.100     0.100    32.049    23.428   282.985    91.365    19.924    37.718    63.411     0.283     0.720     0.094     0.071     0.007     0.137     4.413     0.040     0.019 .00000E+00 0.000E+00 0.000E+00 0.000E+00 0.000E+00 0.000E+00
BIGSUB  17        0    1.21866E+03   139.100     0.100    32.062    22.744   226.617    88.488    25.728    39.064    69.408     1.462     2.261     0.295     0.084     0.007     0.336     3.210     0.030     0.017 .00000E+00 0.000E+00 0.000E+00 0.000E+00 0.000E+00 0.000E+00
BIGSUB   1        0    2.15751E+03   163.100     0.000    34.115    27.097   165.758    99.498    32.950    72.983   110.483     0.388     0.797     0.105     0.016     0.009     0.154     2.419     0.010     0.035 .00000E+00 0.000E+00 0.000E+00 0.000E+00 0.000E+00 0.000E+00
BIGSUB   2        0    2.19174E+03   163.100     0.000    34.112    26.520   239.123    94.365    33.043    68.966   110.846     0.699     1.051     0.135     0.019     0.009     0.208     6.851     0.034     0.037 .00000E+00 0.000E+00 0.000E+00 0.000E+00 0.000E+00 0.000E+00
BIGSUB   3        0    2.62000E+02   163.100     0.000    34.123    24.457   210.556   107.825    24.156    78.338   109.901     0.311     0.680     0.087     0.019     0.008     0.142     5.030     0.039     0.066 .00000E+00 0.000E+00 0.000E+00 0.000E+00 0.000E+00 0.000E+00
BIGSUB   4        0    2.17781E+03   163.100     0.000    34.139    25.347   198.383   103.935    27.937    75.990   110.612     1.146     1.142     0.146     0.017     0.008     0.249     4.385     0.032     0.061 .00000E+00 0.000E+00 0.000E+00 0.000E+00 0.000E+00 0.000E+00
BIGSUB   5        0    2.18044E+03   163.100     0.000    34.117    24.777   215.621   105.574    26.560    76.757   110.142     0.337     0.968     0.123     0.020     0.008     0.180     4.506     0.042     0.073 .00000E+00 0.000E+00 0.000E+00 0.000E+00 0.000E+00 0.000E+00
BIGSUB   6        0    2.79869E+02   190.000     0.000    37.439    26.734   214.713   121.081    39.506    78.440   121.992     0.657     2.597     0.334     0.023     0.014     0.367     1.815     0.016     0.063 .00000E+00 0.000E+00 0.000E+00 0.000E+00 0.000E+00 0.000E+00
BIGSUB   7        0    2.10309E+03   163.100     0.000    34.153    24.670   193.122   108.946    25.423    79.876   110.819     0.635     1.133     0.144     0.017     0.008     0.204     3.050     0.024     0.088 .00000E+00 0.000E+00 0.000E+00 0.000E+00 0.000E+00 0.000E+00
BIGSUB   8        0    2.11059E+03   190.000     0.000    37.442    27.386   207.471    99.819    58.574    57.667   120.353     2.022     2.144     0.277     0.033     0.013     0.511     2.554     0.024     0.050 .00000E+00 0.000E+00 0.000E+00 0.000E+00 0.000E+00 0.000E+00
BIGSUB   9        0    2.55778E+02   204.600     0.000    32.996    25.926   276.362   105.422    60.997    63.588   133.049     5.333     4.970     0.651     0.031     0.016     1.158     6.612     0.037     0.056 .00000E+00 0.000E+00 0.000E+00 0.000E+00 0.000E+00 0.000E+00
BIGSUB  10        0    2.45121E+02   204.600     0.000    32.993    26.447   271.105    96.729    71.088    56.254   133.340     4.899     4.714     0.621     0.045     0.017     1.138     4.397     0.021     0.035 .00000E+00 0.000E+00 0.000E+00 0.000E+00 0.000E+00 0.000E+00
BIGSUB  11        0    2.64601E+02   190.000     0.000    37.455    26.403   196.045   119.564    39.366    76.589   121.997     1.343     2.628     0.332     0.026     0.012     0.472     3.799     0.026     0.074 .00000E+00 0.000E+00 0.000E+00 0.000E+00 0.000E+00 0.000E+00
BIGSUB  12        0    2.10255E+03   178.600     0.000    36.874    26.267   235.419   113.691    29.259    76.696   112.566     0.641     1.136     0.149     0.020     0.009     0.258     4.265     0.032     0.073 .00000E+00 0.000E+00 0.000E+00 0.000E+00 0.000E+00 0.000E+00
BIGSUB  13        0    2.94719E+02   204.600     0.000    32.999    26.205   262.164    95.993    73.584    56.541   135.048     8.650     5.505     0.707     0.048     0.015     1.268     3.309     0.021     0.043 .00000E+00 0.000E+00 0.000E+00 0.000E+00 0.000E+00 0.000E+00
BIGSUB  14        0    2.10900E+03   178.600     0.000    36.889    28.585   315.253    95.694    40.512    66.851   114.846     0.572     1.653     0.211     0.028     0.012     0.344     5.532     0.037     0.055 .00000E+00 0.000E+00 0.000E+00 0.000E+00 0.000E+00 0.000E+00
BIGSUB  15        0    2.87497E+02   204.600     0.000    33.017    25.181   264.583   110.358    58.378    67.005   132.928     6.691     4.630     0.592     0.038     0.014     0.953     5.544     0.037     0.063 .00000E+00 0.000E+00 0.000E+00 0.000E+00 0.000E+00 0.000E+00
BIGSUB  16        0    2.59907E+02   204.600     0.000    33.022    25.838   287.592   108.866    58.942    65.061   130.932     2.232     3.592     0.468     0.038     0.018     0.733     5.053     0.036     0.062 .00000E+00 0.000E+00 0.000E+00 0.000E+00 0.000E+00 0.000E+00
BIGSUB  17        0    2.21866E+03   204.600     0.000    33.026    25.044   229.450   108.052    63.531    64.951   134.267     6.420     6.649     0.867     0.044     0.016     1.100     3.882     0.027     0.064 .00000E+00 0.000E+00 0.000E+00 0.000E+00 0.000E+00 0.000E+00
BIGSUB   1        0    3.15751E+03   119.000     0.300    70.451    39.945   149.719    85.071     8.301    91.875   105.461     0.148     0.345     0.046     0.010     0.002     0.072     2.241     0.008     0.046 .00000E+00 0.000E+00 0.000E+00 0.000E+00 0.000E+00 0.000E+00
BIGSUB   2        0    3.19174E+03   119.000     0.300    70.452    39.422   222.091    82.611     8.147    87.558   105.013     0.187     0.353     0.046     0.010     0.002     0.075     6.441     0.032     0.050 .00000E+00 0.000E+00 0.000E+00 0.000E+00 0.000E+00 0.000E+00
BIGSUB   3        0    3.62000E+02   119.000     0.300    70.467    36.562   195.412    87.229     6.386    97.738   111.853     0.062     0.192     0.025     0.010     0.002     0.039     4.401     0.030     0.089 .00000E+00 0.000E+00 0.000E+00 0.000E+00 0.000E+00 0.000E+00
BIGSUB   4        0    3.17781E+03   119.000     0.300    70.474    37.599   182.659    85.970     7.712    94.846   109.655     0.331     0.343     0.044     0.009     0.002     0.078     3.874     0.024     0.080 .00000E+00 0.000E+00 0.000E+00 0.000E+00 0.000E+00 0.000E+00
BIGSUB   5        0    3.18044E+03   119.000     0.300    70.465    37.031   200.291    86.368     7.457    95.978   110.669     0.077     0.284     0.036     0.012     0.002     0.052     3.977     0.032     0.098 .00000E+00 0.000E+00 0.000E+00 0.000E+00 0.000E+00 0.000E+00
BIGSUB   6        0    3.79869E+02   111.400     0.500    70.946    37.704   198.425    84.682     4.221   102.027   110.928     0.067     0.386     0.050     0.009     0.001     0.051     1.396     0.010     0.092 .00000E+00 0.000E+00 0.000E+00 0.000E+00 0.000E+00 0.000E+00
BIGSUB   7        0    3.10309E+03   119.000     0.300    70.486    36.763   178.326    88.098     6.654    99.010   111.713     0.187     0.336     0.043     0.009     0.002     0.059     2.629     0.016     0.112 .00000E+00 0.000E+00 0.000E+00 0.000E+00 0.000E+00 0.000E+00
BIGSUB   8        0    3.11059E+03   111.400     0.500    70.948    37.868   190.298    73.415    16.147    80.662   101.159     0.545     0.575     0.075     0.020     0.003     0.142     1.902     0.014     0.077 .00000E+00 0.000E+00 0.000E+00 0.000E+00 0.000E+00 0.000E+00
BIGSUB   9        0    3.55778E+02   121.800     0.600    74.705    43.650   257.554    79.888    12.772    86.903   107.998     0.484     0.596     0.078     0.020     0.003     0.141     5.558     0.029     0.085 .00000E+00 0.000E+00 0.000E+00 0.000E+00 0.000E+00 0.000E+00
BIGSUB  10        0    3.45121E+02   121.800     0.600    74.706    44.384   251.463    75.522    19.580    78.900   104.632     0.673     0.826     0.108     0.032     0.004     0.207     3.700     0.018     0.054 .00000E+00 0.000E+00 0.000E+00 0.000E+00 0.000E+00 0.000E+00
BIGSUB  11        0    3.64601E+02   111.400     0.500    70.956    36.871   180.131    82.458     5.663    99.718   111.413     0.233     0.436     0.055     0.012     0.001     0.075     2.769     0.016     0.106 .00000E+00 0.000E+00 0.000E+00 0.000E+00 0.000E+00 0.000E+00
BIGSUB  12        0    3.10255E+03   128.400     0.500    72.984    39.652   218.771    95.206     6.908    98.881   113.298     0.131     0.354     0.046     0.012     0.002     0.078     4.188     0.028     0.103 .00000E+00 0.000E+00 0.000E+00 0.000E+00 0.000E+00 0.000E+00
BIGSUB  13        0    3.94719E+02   121.800     0.600    74.710    43.658   243.169    73.852    22.437    78.366   105.936     1.346     1.023     0.130     0.034     0.003     0.242     2.682     0.016     0.069 .00000E+00 0.000E+00 0.000E+00 0.000E+00 0.000E+00 0.000E+00
BIGSUB  14        0    3.10900E+03   128.400     0.500    72.993    42.799   295.434    89.768    12.135    86.963   107.570     0.161     0.601     0.076     0.023     0.003     0.123     5.642     0.037     0.083 .00000E+00 0.000E+00 0.000E+00 0.000E+00 0.000E+00 0.000E+00
BIGSUB  15        0    3.87497E+02   121.800     0.600    74.717    42.020   246.975    79.831    14.411    90.025   111.802     0.857     0.710     0.090     0.026     0.003     0.138     4.436     0.026     0.093 .00000E+00 0.000E+00 0.000E+00 0.000E+00 0.000E+00 0.000E+00
BIGSUB  16        0    3.59907E+02   121.800     0.600    74.717    43.654   269.279    81.413    12.232    89.258   108.598     0.162     0.485     0.063     0.027     0.004     0.096     4.287     0.030     0.098 .00000E+00 0.000E+00 0.000E+00 0.000E+00 0.000E+00 0.000E+00
BIGSUB  17        0    3.21866E+03   121.800     0.600    74.725    42.206   212.971    77.417    16.953    87.507   110.355     0.904     1.138     0.148     0.030     0.003     0.187     3.081     0.020     0.098 .00000E+00 0.000E+00 0.000E+00 0.000E+00 0.000E+00 0.000E+00
BIGSUB   1        0    4.15751E+03   105.800     0.000    82.723    56.591   158.963    30.793     8.059    77.976    90.488     0.185     0.336     0.045     0.009     0.002     0.075     1.207     0.003     0.030 .00000E+00 0.000E+00 0.000E+00 0.000E+00 0.000E+00 0.000E+00
BIGSUB   2        0    4.19174E+03   105.800     0.000    82.716    55.366   231.481    29.742     8.131    74.733    89.101     0.235     0.331     0.043     0.010     0.002     0.074     3.159     0.011     0.034 .00000E+00 0.000E+00 0.000E+00 0.000E+00 0.000E+00 0.000E+00
BIGSUB   3        0    4.62000E+02   105.800     0.000    82.704    49.811   205.297    37.540     6.211    82.505    94.529     0.083     0.194     0.025     0.011     0.002     0.042     2.304     0.011     0.060 .00000E+00 0.000E+00 0.000E+00 0.000E+00 0.000E+00 0.000E+00
BIGSUB   4        0    4.17781E+03   105.800     0.000    82.712    51.724   192.373    35.019     7.295    80.293    93.033     0.344     0.306     0.039     0.009     0.002     0.072     2.040     0.009     0.052 .00000E+00 0.000E+00 0.000E+00 0.000E+00 0.000E+00 0.000E+00
BIGSUB   5        0    4.18044E+03   105.800     0.000    82.700    50.444   210.226    36.187     7.119    81.152    93.779     0.096     0.280     0.036     0.012     0.002     0.055     2.069     0.011     0.066 .00000E+00 0.000E+00 0.000E+00 0.000E+00 0.000E+00 0.000E+00
BIGSUB   6        0    4.79869E+02   101.100     0.000    91.348    54.015   206.118    35.402     3.244    84.783    92.283     0.069     0.301     0.039     0.016     0.001     0.041     0.751     0.004     0.060 .00000E+00 0.000E+00 0.000E+00 0.000E+00 0.000E+00 0.000E+00
BIGSUB   7        0    4.10309E+03   105.800     0.000    82.708    50.271   188.113    37.855     6.451    83.521    94.973     0.189     0.316     0.040     0.190     0.002     0.056     1.413     0.012     0.072 .00000E+00 0.000E+00 0.000E+00 0.000E+00 0.000E+00 0.000E+00
BIGSUB   8        0    4.11059E+03   101.100     0.000    91.349    53.375   197.184    27.122    12.703    69.234    85.656     0.491     0.432     0.057     0.019     0.002     0.108     1.013     0.005     0.049 .00000E+00 0.000E+00 0.000E+00 0.000E+00 0.000E+00 0.000E+00
BIGSUB   9        0    4.55778E+02    98.000     0.000    87.501    55.787   262.610    28.124     6.440    76.229    88.287     0.321     0.279     0.036     0.036     0.001     0.068     2.585     0.025     0.058 .00000E+00 0.000E+00 0.000E+00 0.000E+00 0.000E+00 0.000E+00
BIGSUB  10        0    4.45121E+02    98.000     0.000    87.497    56.702   256.044    24.388    10.620    70.036    85.102     0.488     0.415     0.054     0.068     0.002     0.106     1.719     0.013     0.039 .00000E+00 0.000E+00 0.000E+00 0.000E+00 0.000E+00 0.000E+00
BIGSUB  11        0    4.64601E+02   101.100     0.000    91.352    51.840   187.906    35.568     4.391    82.944    92.320     0.240     0.335     0.042     0.010     0.001     0.059     1.520     0.006     0.068 .00000E+00 0.000E+00 0.000E+00 0.000E+00 0.000E+00 0.000E+00
BIGSUB  12        0    4.10255E+03    92.100     0.000    87.510    52.988   226.357    28.020     1.913    86.092    93.142     0.041     0.087     0.011     0.006     0.001     0.019     1.569     0.016     0.072 .00000E+00 0.000E+00 0.000E+00 0.000E+00 0.000E+00 0.000E+00
BIGSUB  13        0    4.94719E+02    98.000     0.000    87.499    55.233   248.005    24.436    12.232    69.224    85.456     0.976     0.523     0.067     0.026     0.002     0.126     1.286     0.005     0.048 .00000E+00 0.000E+00 0.000E+00 0.000E+00 0.000E+00 0.000E+00
BIGSUB  14        0    4.10900E+03    92.100     0.000    87.513    57.945   302.637    21.526     3.340    76.718    85.201     0.040     0.142     0.018     0.011     0.001     0.029     2.052     0.026     0.062 .00000E+00 0.000E+00 0.000E+00 0.000E+00 0.000E+00 0.000E+00
[...]
BIGSUB  14        0   10.10900E+03    45.600     0.000   107.868    49.731   290.864     9.027    22.716     7.004    33.455     0.016     0.575     0.071     0.052     0.017     0.079     2.832     0.033     0.003 .00000E+00 0.000E+00 0.000E+00 0.000E+00 0.000E+00 0.000E+00
BIGSUB  15        0   10.87497E+02    50.900     0.000   110.515    46.620   237.840    12.055     9.545    11.258    24.814     0.027     0.490     0.061     0.029     0.008     0.063     2.945     0.032     0.004 .00000E+00 0.000E+00 0.000E+00 0.000E+00 0.000E+00 0.000E+00
BIGSUB  16        0   10.59907E+02    50.900     0.000   110.515    52.137   244.095     7.543    12.483     7.061    23.096     0.011     0.537     0.068     0.035     0.010     0.077     2.589     0.030     0.003 .00000E+00 0.000E+00 0.000E+00 0.000E+00 0.000E+00 0.000E+00
BIGSUB  17        0   10.21866E+03    50.900     0.000   110.545    47.082   201.611    10.590    11.576    10.147    24.909     0.032     0.592     0.075     0.037     0.010     0.077     2.168     0.024     0.001 .00000E+00 0.000E+00 0.000E+00 0.000E+00 0.000E+00 0.000E+00
BIGSUB   1        0   11.15751E+03    29.500     0.000    71.259    32.571   140.387     2.135     0.542    11.369    13.182     0.008     0.018     0.002     0.004     0.000     0.003     0.444     0.002     0.000 .00000E+00 0.000E+00 0.000E+00 0.000E+00 0.000E+00 0.000E+00
BIGSUB   2        0   11.19174E+03    29.500     0.000    71.264    32.607   191.161     1.375     0.449     5.805     7.624     0.007     0.015     0.002     0.004     0.000     0.002     0.720     0.005     0.000 .00000E+00 0.000E+00 0.000E+00 0.000E+00 0.000E+00 0.000E+00
BIGSUB   3        0   11.62000E+02    29.500     0.000    71.338    30.073   180.693     4.611     0.476    15.414    17.413     0.002     0.006     0.001     0.005     0.000     0.001     0.514     0.006     0.001 .00000E+00 0.000E+00 0.000E+00 0.000E+00 0.000E+00 0.000E+00
BIGSUB   4        0   11.17781E+03    29.500     0.000    71.378    30.954   167.730     4.145     0.463    14.291    16.203     0.005     0.012     0.002     0.003     0.000     0.002     0.496     0.005     0.001 .00000E+00 0.000E+00 0.000E+00 0.000E+00 0.000E+00 0.000E+00
BIGSUB   5        0   11.18044E+03    29.500     0.000    71.329    30.582   183.333     4.064     0.539    13.464    15.416     0.002     0.009     0.001     0.005     0.000     0.001     0.474     0.007     0.001 .00000E+00 0.000E+00 0.000E+00 0.000E+00 0.000E+00 0.000E+00
BIGSUB   6        0   11.79869E+02    28.800     0.000    67.281    28.149   184.251     4.239     0.279    11.440    12.882     0.003     0.020     0.002     0.001     0.000     0.002     0.215     0.004     0.001 .00000E+00 0.000E+00 0.000E+00 0.000E+00 0.000E+00 0.000E+00
BIGSUB   7        0   11.10309E+03    29.500     0.000    71.440    29.183   168.672     5.797     0.414    17.663    19.509     0.001     0.008     0.001     0.003     0.000     0.001     0.361     0.005     0.004 .00000E+00 0.000E+00 0.000E+00 0.000E+00 0.000E+00 0.000E+00
BIGSUB   8        0   11.11059E+03    28.800     0.000    67.290    28.301   164.972     4.088     1.818     9.307    12.124     0.008     0.018     0.003     0.010     0.001     0.003     0.255     0.003     0.001 .00000E+00 0.000E+00 0.000E+00 0.000E+00 0.000E+00 0.000E+00
BIGSUB   9        0   11.55778E+02    34.300     0.000    67.794    32.310   231.204     4.060     2.272     9.474    13.327     0.021     0.054     0.007     0.004     0.001     0.010     0.742     0.007     0.004 .00000E+00 0.000E+00 0.000E+00 0.000E+00 0.000E+00 0.000E+00
BIGSUB  10        0   11.45121E+02    34.300     0.000    67.796    32.996   214.490     2.897     3.177     7.089    11.454     0.032     0.062     0.008     0.005     0.001     0.012     0.474     0.004     0.003 .00000E+00 0.000E+00 0.000E+00 0.000E+00 0.000E+00 0.000E+00
BIGSUB  11        0   11.64601E+02    28.800     0.000    67.329    29.083   166.007     4.418     0.438    15.271    17.105     0.006     0.021     0.003     0.002     0.000     0.003     0.338     0.004     0.001 .00000E+00 0.000E+00 0.000E+00 0.000E+00 0.000E+00 0.000E+00
BIGSUB  12        0   11.10255E+03    31.600     0.000    70.934    29.926   212.283     6.356     0.405    20.231    22.379     0.004     0.016     0.002     0.002     0.000     0.003     0.517     0.008     0.006 .00000E+00 0.000E+00 0.000E+00 0.000E+00 0.000E+00 0.000E+00
BIGSUB  13        0   11.94719E+02    34.300     0.000    67.816    29.736   216.607     3.441     3.632     6.859    11.603     0.058     0.089     0.011     0.006     0.001     0.016     0.404     0.004     0.001 .00000E+00 0.000E+00 0.000E+00 0.000E+00 0.000E+00 0.000E+00
BIGSUB  14        0   11.10900E+03    31.600     0.000    70.976    32.704   285.334     3.106     0.722     7.459     9.600     0.004     0.022     0.003     0.002     0.000     0.004     0.649     0.007     0.002 .00000E+00 0.000E+00 0.000E+00 0.000E+00 0.000E+00 0.000E+00
BIGSUB  15        0   11.87497E+02    34.300     0.000    67.856    28.868   234.226     5.951     2.471    12.781    16.883     0.046     0.089     0.011     0.006     0.001     0.014     0.673     0.008     0.004 .00000E+00 0.000E+00 0.000E+00 0.000E+00 0.000E+00 0.000E+00
BIGSUB  16        0   11.59907E+02    34.300     0.000    67.860    32.027   240.281     3.381     2.158     7.794    11.347     0.015     0.059     0.007     0.007     0.001     0.009     0.584     0.007     0.003 .00000E+00 0.000E+00 0.000E+00 0.000E+00 0.000E+00 0.000E+00
BIGSUB  17        0   11.21866E+03    34.300     0.000    67.890    29.057   198.174     5.279     2.978    11.510    15.859     0.049     0.098     0.012     0.008     0.002     0.016     0.467     0.006     0.002 .00000E+00 0.000E+00 0.000E+00 0.000E+00 0.000E+00 0.000E+00
BIGSUB   1        0   12.15751E+03    69.800    34.045    34.410    21.280   160.478    25.929     1.608     8.186    11.123     0.022     0.052     0.007     0.009     0.000     0.009     0.601     0.005     0.000 .00000E+00 0.000E+00 0.000E+00 0.000E+00 0.000E+00 0.000E+00
BIGSUB   2        0   12.19174E+03    69.800    34.045    34.410    20.401   223.100    14.038     1.362     4.291     8.073     0.019     0.042     0.006     0.008     0.000     0.008     1.871     0.018     0.000 .00000E+00 0.000E+00 0.000E+00 0.000E+00 0.000E+00 0.000E+00
BIGSUB   3        0   12.62000E+02    69.800    34.043    34.444    18.981   202.589    25.796     1.419    11.278    15.208     0.005     0.018     0.003     0.009     0.001     0.003     1.602     0.019     0.001 .00000E+00 0.000E+00 0.000E+00 0.000E+00 0.000E+00 0.000E+00
BIGSUB   4        0   12.17781E+03    69.800    34.043    34.468    19.651   189.667    25.349     1.356    10.473    14.045     0.013     0.030     0.004     0.007     0.000     0.005     1.361     0.016     0.001 .00000E+00 0.000E+00 0.000E+00 0.000E+00 0.000E+00 0.000E+00
BIGSUB   5        0   12.18044E+03    69.800    34.043    34.438    18.939   207.168    23.860     1.603     9.925    13.821     0.006     0.026     0.004     0.010     0.001     0.004     1.455     0.022     0.001 .00000E+00 0.000E+00 0.000E+00 0.000E+00 0.000E+00 0.000E+00
BIGSUB   6        0   12.79869E+02    68.300    33.651    31.154    17.192   210.922    23.392     0.449     8.326    10.114     0.005     0.028     0.003     0.001     0.000     0.004     0.512     0.009     0.001 .00000E+00 0.000E+00 0.000E+00 0.000E+00 0.000E+00 0.000E+00
BIGSUB   7        0   12.10309E+03    69.800    34.042    34.498    18.628   187.133    30.329     1.258    13.078    16.341     0.004     0.023     0.003     0.007     0.000     0.003     1.026     0.014     0.002 .00000E+00 0.000E+00 0.000E+00 0.000E+00 0.000E+00 0.000E+00
BIGSUB   8        0   12.11059E+03    68.300    33.651    31.159    18.256   190.764    19.379     4.057     7.138    12.589     0.018     0.038     0.006     0.023     0.001     0.007     0.735     0.010     0.001 .00000E+00 0.000E+00 0.000E+00 0.000E+00 0.000E+00 0.000E+00
BIGSUB   9        0   12.55778E+02    68.800    28.965    34.099    21.688   257.015    18.028     1.283     6.927    10.793     0.018     0.039     0.005     0.006     0.000     0.008     1.853     0.017     0.002 .00000E+00 0.000E+00 0.000E+00 0.000E+00 0.000E+00 0.000E+00
BIGSUB  10        0   12.45121E+02    68.800    28.971    34.099    22.298   244.010    13.282     2.400     5.157     9.367     0.036     0.064     0.008     0.013     0.001     0.013     1.199     0.009     0.001 .00000E+00 0.000E+00 0.000E+00 0.000E+00 0.000E+00 0.000E+00
BIGSUB  11        0   12.64601E+02    68.300    33.651    31.179    17.505   189.856    25.071     0.713    10.758    13.465     0.009     0.031     0.004     0.002     0.000     0.005     1.058     0.011     0.001 .00000E+00 0.000E+00 0.000E+00 0.000E+00 0.000E+00 0.000E+00
BIGSUB  12        0   12.10255E+03    67.300    29.838    34.221    19.422   228.490    29.651     0.537    14.495    17.515     0.008     0.029     0.004     0.004     0.000     0.005     1.368     0.020     0.003 .00000E+00 0.000E+00 0.000E+00 0.000E+00 0.000E+00 0.000E+00
BIGSUB  13        0   12.94719E+02    68.800    28.937    34.110    21.178   245.375    14.678     3.171     5.291     9.989     0.079     0.099     0.013     0.019     0.001     0.021     0.918     0.009     0.001 .00000E+00 0.000E+00 0.000E+00 0.000E+00 0.000E+00 0.000E+00
BIGSUB  14        0   12.10900E+03    67.300    29.837    34.244    20.922   306.162    22.531     1.023     5.556     9.057     0.009     0.043     0.005     0.007     0.000     0.008     1.815     0.020     0.001 .00000E+00 0.000E+00 0.000E+00 0.000E+00 0.000E+00 0.000E+00
BIGSUB  15        0   12.87497E+02    68.800    28.937    34.135    20.448   256.266    22.660     1.969     9.557    13.952     0.060     0.094     0.011     0.014     0.000     0.017     1.574     0.018     0.002 .00000E+00 0.000E+00 0.000E+00 0.000E+00 0.000E+00 0.000E+00
BIGSUB  16        0   12.59907E+02    68.800    28.963    34.139    21.626   265.538    18.912     1.449     5.657     9.228     0.011     0.043     0.006     0.010     0.001     0.007     1.430     0.016     0.001 .00000E+00 0.000E+00 0.000E+00 0.000E+00 0.000E+00 0.000E+00
BIGSUB  17        0   12.21866E+03    68.800    28.936    34.153    20.210   220.738    22.405     2.446     8.698    13.027     0.068     0.106     0.014     0.022     0.001     0.021     1.080     0.013     0.002 .00000E+00 0.000E+00 0.000E+00 0.000E+00 0.000E+00 0.000E+00
BIGSUB   1        0 2010.15751E+03   985.100    58.845  1305.054   608.289   160.478   260.191   113.197   293.692   436.174     1.773     4.290     0.554     0.725     0.036     0.634    11.234     0.073     0.067 .00000E+00 0.000E+00 0.000E+00 0.000E+00 0.000E+00 0.000E+00
BIGSUB   2        0 2010.19174E+03   985.100    58.845  1305.099   646.625   223.100   223.833   103.330   263.328   413.704     2.046     4.421     0.566     0.637     0.039     0.693    30.440     0.197     0.080 .00000E+00 0.000E+00 0.000E+00 0.000E+00 0.000E+00 0.000E+00
BIGSUB   3        0 2010.62000E+02   985.100    58.843  1305.486   588.899   202.589   298.593    85.261   334.271   462.922     0.830     2.974     0.380     0.616     0.040     0.496    22.924     0.194     0.151 .00000E+00 0.000E+00 0.000E+00 0.000E+00 0.000E+00 0.000E+00
BIGSUB   4        0 2010.17781E+03   985.100    58.843  1305.646   593.337   189.667   285.196    97.543   320.171   457.402     2.114     4.176     0.534     0.450     0.037     0.708    20.062     0.155     0.137 .00000E+00 0.000E+00 0.000E+00 0.000E+00 0.000E+00 0.000E+00
BIGSUB   5        0 2010.18044E+03   985.100    58.843  1305.458   597.148   207.168   284.957    93.646   321.169   455.137     0.929     3.910     0.496     0.725     0.045     0.606    20.598     0.216     0.168 .00000E+00 0.000E+00 0.000E+00 0.000E+00 0.000E+00 0.000E+00
BIGSUB   6        0 2010.79869E+02   980.500    58.151  1272.684   624.665   210.922   294.930    59.410   351.263   440.252     0.674     3.947     0.487     0.170     0.037     0.506     7.807     0.095     0.188 .00000E+00 0.000E+00 0.000E+00 0.000E+00 0.000E+00 0.000E+00
BIGSUB   7        0 2010.10309E+03   985.100    58.842  1305.951   577.573   187.133   311.002    90.644   344.709   470.552     1.138     3.994     0.499     0.467     0.041     0.589    14.153     0.128     0.221 .00000E+00 0.000E+00 0.000E+00 0.000E+00 0.000E+00 0.000E+00
BIGSUB   8        0 2010.11059E+03   980.500    58.151  1272.724   603.962   190.764   238.075   147.417   269.289   443.970     2.076     3.241     0.430     1.116     0.040     0.631    10.591     0.170     0.126 .00000E+00 0.000E+00 0.000E+00 0.000E+00 0.000E+00 0.000E+00
BIGSUB   9        0 2010.55778E+02  1050.800    55.965  1323.220   659.812   257.015   256.568   129.328   303.915   481.610     2.546     4.757     0.620     0.287     0.054     0.967    27.950     0.214     0.184 .00000E+00 0.000E+00 0.000E+00 0.000E+00 0.000E+00 0.000E+00
BIGSUB  10        0 2010.45121E+02  1050.800    55.971  1323.251   670.107   244.010   224.960   168.343   268.516   473.388     3.213     5.325     0.703     0.484     0.060     1.126    18.432     0.118     0.114 .00000E+00 0.000E+00 0.000E+00 0.000E+00 0.000E+00 0.000E+00
BIGSUB  11        0 2010.64601E+02   980.500    58.151  1272.900   595.224   189.856   308.116    70.174   360.062   468.310     1.367     4.114     0.517     0.142     0.036     0.614    15.907     0.100     0.192 .00000E+00 0.000E+00 0.000E+00 0.000E+00 0.000E+00 0.000E+00
BIGSUB  12        0 2010.10255E+03  1051.900    55.838  1306.464   613.578   228.490   337.997    89.341   377.222   510.593     1.034     3.511     0.430     0.402     0.053     0.612    20.168     0.224     0.256 .00000E+00 0.000E+00 0.000E+00 0.000E+00 0.000E+00 0.000E+00
BIGSUB  13        0 2010.94719E+02  1050.800    55.937  1323.342   655.470   245.375   225.419   176.781   270.283   479.221     6.113     7.067     0.908     0.405     0.058     1.279    13.988     0.092     0.124 .00000E+00 0.000E+00 0.000E+00 0.000E+00 0.000E+00 0.000E+00
BIGSUB  14        0 2010.10900E+03  1051.900    55.837  1306.652   658.484   306.162   250.910   129.652   290.470   464.926     0.977     4.301     0.533     0.543     0.068     0.726    25.695     0.219     0.175 .00000E+00 0.000E+00 0.000E+00 0.000E+00 0.000E+00 0.000E+00
BIGSUB  15        0 2010.87497E+02  1050.800    55.937  1323.498   633.716   256.266   280.705   124.786   326.276   496.366     4.280     6.257     0.776     0.360     0.053     0.983    23.458     0.188     0.193 .00000E+00 0.000E+00 0.000E+00 0.000E+00 0.000E+00 0.000E+00
BIGSUB  16        0 2010.59907E+02  1050.800    55.963  1323.493   676.129   265.538   256.589   122.657   306.447   471.316     1.267     4.576     0.593     0.731     0.066     0.788    21.485     0.201     0.189 .00000E+00 0.000E+00 0.000E+00 0.000E+00 0.000E+00 0.000E+00
BIGSUB  17        0 2010.21866E+03  1050.800    55.936  1323.667   636.224   220.738   269.590   140.918   315.901   494.173     4.547     7.751     0.992     1.446     0.063     1.185    16.277     0.163     0.205 .00000E+00 0.000E+00 0.000E+00 0.000E+00 0.000E+00 0.000E+00
BIGSUB   1        0 14.0.15751E+03  1107.564    35.833  1206.119   657.339   160.478   328.934   109.074   291.271   430.419     2.060     4.353     0.570     0.612     0.029     0.776    12.571     0.078     0.063 .00000E+00 0.000E+00 0.000E+00 0.000E+00 0.000E+00 0.000E+00
BIGSUB   2        0 14.0.19174E+03  1107.564    35.833  1206.140   669.752   223.100   296.421   107.875   260.988   419.380     2.449     4.343     0.560     0.576     0.031     0.796    34.626     0.218     0.071 .00000E+00 0.000E+00 0.000E+00 0.000E+00 0.000E+00 0.000E+00
BIGSUB   3        0 14.0.62000E+02  1107.564    35.832  1206.461   614.313   202.589   382.860    84.965   342.819   474.041     0.930     2.709     0.349     0.644     0.030     0.515    25.958     0.221     0.138 .00000E+00 0.000E+00 0.000E+00 0.000E+00 0.000E+00 0.000E+00
BIGSUB   4        0 14.0.17781E+03  1107.564    35.832  1206.636   621.458   189.667   365.621    98.398   326.363   466.835     2.788     4.060     0.522     0.486     0.028     0.794    22.681     0.179     0.123 .00000E+00 0.000E+00 0.000E+00 0.000E+00 0.000E+00 0.000E+00
BIGSUB   5        0 14.0.18044E+03  1107.564    35.833  1206.420   621.391   207.168   368.787    94.601   329.606   467.155     1.033     3.643     0.464     0.733     0.031     0.634    23.356     0.245     0.151 .00000E+00 0.000E+00 0.000E+00 0.000E+00 0.000E+00 0.000E+00
BIGSUB   6        0 14.0.79869E+02  1137.729    32.504  1209.813   650.181   210.922   397.732    81.116   357.050   468.198     0.976     4.807     0.611     0.376     0.033     0.659     8.941     0.097     0.166 .00000E+00 0.000E+00 0.000E+00 0.000E+00 0.000E+00 0.000E+00
BIGSUB   7        0 14.0.10309E+03  1107.565    35.832  1206.907   607.690   187.133   395.312    89.026   354.487   480.370     1.443     3.811     0.480     0.552     0.029     0.618    15.937     0.146     0.191 .00000E+00 0.000E+00 0.000E+00 0.000E+00 0.000E+00 0.000E+00
BIGSUB   8        0 14.0.11059E+03  1137.729    32.504  1209.854   637.342   190.764   303.913   185.521   267.755   481.611     3.183     4.134     0.546     1.478     0.039     0.881    12.144     0.166     0.122 .00000E+00 0.000E+00 0.000E+00 0.000E+00 0.000E+00 0.000E+00
BIGSUB   9        0 14.0.55778E+02  1219.093    34.722  1194.634   654.063   257.015   355.694   177.374   316.091   545.333     4.524     6.407     0.847     0.496     0.050     1.404    33.143     0.227     0.160 .00000E+00 0.000E+00 0.000E+00 0.000E+00 0.000E+00 0.000E+00
BIGSUB  10        0 14.0.45121E+02  1219.093    34.723  1194.643   663.090   244.010   308.140   227.761   271.087   536.927     5.322     7.071     0.944     0.700     0.056     1.611    21.807     0.125     0.098 .00000E+00 0.000E+00 0.000E+00 0.000E+00 0.000E+00 0.000E+00
BIGSUB  11        0 14.0.64601E+02  1137.729    32.504  1210.035   617.412   189.856   411.617    90.714   370.037   500.899     1.990     4.886     0.614     0.245     0.029     0.790    18.404     0.118     0.163 .00000E+00 0.000E+00 0.000E+00 0.000E+00 0.000E+00 0.000E+00
BIGSUB  12        0 14.0.10255E+03  1166.957    36.108  1201.965   618.384   228.490   430.808    95.282   387.638   528.421     1.414     3.670     0.468     0.471     0.036     0.731    22.839     0.232     0.214 .00000E+00 0.000E+00 0.000E+00 0.000E+00 0.000E+00 0.000E+00
BIGSUB  13        0 14.0.94719E+02  1219.093    34.719  1194.735   649.802   245.375   311.443   242.409   274.245   549.520     9.926     9.326     1.204     0.653     0.049     1.841    16.434     0.105     0.106 .00000E+00 0.000E+00 0.000E+00 0.000E+00 0.000E+00 0.000E+00
BIGSUB  14        0 14.0.10900E+03  1166.957    36.107  1202.152   660.526   306.162   337.078   140.273   298.598   486.285     1.226     4.657     0.585     0.588     0.048     0.858    29.529     0.243     0.145 .00000E+00 0.000E+00 0.000E+00 0.000E+00 0.000E+00 0.000E+00
BIGSUB  15        0 14.0.87497E+02  1219.093    34.718  1194.916   628.869   256.266   389.745   173.199   348.255   569.608     7.048     8.103     1.025     0.664     0.046     1.408    27.707     0.209     0.166 .00000E+00 0.000E+00 0.000E+00 0.000E+00 0.000E+00 0.000E+00
BIGSUB  16        0 14.0.59907E+02  1219.093    34.721  1194.935   668.915   265.538   358.182   168.025   318.538   530.831     2.129     5.956     0.778     0.895     0.059     1.118    25.372     0.218     0.169 .00000E+00 0.000E+00 0.000E+00 0.000E+00 0.000E+00 0.000E+00
BIGSUB  17        0 14.0.21866E+03  1219.093    34.718  1195.071   637.884   220.738   370.050   192.521   329.617   560.724     7.406    10.504     1.378     0.921     0.055     1.682    19.147     0.165     0.182 .00000E+00 0.000E+00 0.000E+00 0.000E+00 0.000E+00 0.000E+00
